*SPEF "ieee 1481-1999"
*DESIGN "user_proj_pwm"
*DATE "11:11:11 Fri 11 11, 1111"
*VENDOR "OpenRCX"
*PROGRAM "Parallel Extraction"
*VERSION "1.0"
*DESIGN_FLOW "NAME_SCOPE LOCAL" "PIN_CAP NONE"
*DIVIDER /
*DELIMITER :
*BUS_DELIMITER []
*T_UNIT 1 NS
*C_UNIT 1 PF
*R_UNIT 1 OHM
*L_UNIT 1 HENRY

*NAME_MAP
*1 io_in[0]
*2 io_in[10]
*3 io_in[11]
*4 io_in[12]
*5 io_in[13]
*6 io_in[14]
*7 io_in[1]
*8 io_in[2]
*9 io_in[3]
*10 io_in[4]
*11 io_in[5]
*12 io_in[6]
*13 io_in[7]
*14 io_in[8]
*15 io_in[9]
*16 net42
*17 net28
*18 net29
*19 net30
*20 net31
*21 net32
*22 net19
*23 net20
*24 net21
*25 net22
*26 net23
*27 net24
*28 net25
*29 net26
*30 net27
*31 net33
*32 io_out[10]
*33 io_out[11]
*34 io_out[12]
*35 io_out[13]
*36 io_out[14]
*37 net34
*38 net35
*39 net36
*40 net37
*41 net38
*42 net39
*43 net40
*44 net41
*45 io_out[9]
*48 wb_clk_i
*49 wb_rst_i
*50 _000_
*51 _001_
*52 _002_
*53 _003_
*54 _004_
*55 _005_
*56 _006_
*57 _007_
*58 _008_
*59 _009_
*60 _010_
*61 _011_
*62 _012_
*63 _013_
*64 _014_
*65 _015_
*66 _016_
*67 _017_
*68 _018_
*69 _019_
*70 _020_
*71 _021_
*72 _022_
*73 _023_
*74 _024_
*75 _025_
*76 _026_
*77 _027_
*78 _028_
*79 _029_
*80 _030_
*81 _031_
*82 _032_
*83 _033_
*84 _034_
*85 _035_
*86 _036_
*87 _037_
*88 _038_
*89 _039_
*90 _040_
*91 _041_
*92 _042_
*93 _043_
*94 _044_
*95 _045_
*96 _046_
*97 _047_
*98 _048_
*99 _049_
*100 _050_
*101 _051_
*102 _052_
*103 _053_
*104 _054_
*105 _055_
*106 _056_
*107 _057_
*108 _058_
*109 _059_
*110 _060_
*111 _061_
*112 _062_
*113 _063_
*114 _064_
*115 _065_
*116 _066_
*117 _067_
*118 _068_
*119 _069_
*120 _070_
*121 _071_
*122 _072_
*123 _073_
*124 _074_
*125 _075_
*126 _076_
*127 _077_
*128 _078_
*129 _079_
*130 _080_
*131 _081_
*132 _082_
*133 _083_
*134 _084_
*135 _085_
*136 _086_
*137 _087_
*138 _088_
*139 _089_
*140 _090_
*141 _091_
*142 _092_
*143 _093_
*144 _094_
*145 _095_
*146 _096_
*147 _097_
*148 _098_
*149 _099_
*150 _100_
*151 _101_
*152 _102_
*153 _103_
*154 _104_
*155 _105_
*156 _106_
*157 _107_
*158 _108_
*159 _109_
*160 _110_
*161 _111_
*162 _112_
*163 _113_
*164 _114_
*165 _115_
*166 _116_
*167 _117_
*168 _118_
*169 _119_
*170 _120_
*171 _121_
*172 _122_
*173 _123_
*174 _124_
*175 _125_
*176 _126_
*177 _127_
*178 _128_
*179 _129_
*180 _130_
*181 _131_
*182 _132_
*183 _133_
*184 _134_
*185 clknet_0_wb_clk_i
*186 clknet_1_0_0_wb_clk_i
*187 clknet_1_1_0_wb_clk_i
*188 clknet_2_0__leaf_wb_clk_i
*189 clknet_2_1__leaf_wb_clk_i
*190 clknet_2_2__leaf_wb_clk_i
*191 clknet_2_3__leaf_wb_clk_i
*192 net1
*193 net10
*194 net100
*195 net101
*196 net102
*197 net103
*198 net104
*199 net105
*200 net106
*201 net107
*202 net108
*203 net109
*204 net11
*205 net110
*206 net111
*207 net112
*208 net113
*209 net114
*210 net115
*211 net12
*212 net13
*213 net14
*214 net15
*215 net16
*216 net17
*217 net18
*218 net2
*219 net3
*220 net4
*221 net43
*222 net44
*223 net45
*224 net46
*225 net47
*226 net48
*227 net49
*228 net5
*229 net50
*230 net51
*231 net52
*232 net53
*233 net54
*234 net55
*235 net56
*236 net57
*237 net58
*238 net59
*239 net6
*240 net60
*241 net61
*242 net62
*243 net63
*244 net64
*245 net65
*246 net66
*247 net67
*248 net68
*249 net69
*250 net7
*251 net70
*252 net71
*253 net72
*254 net73
*255 net74
*256 net75
*257 net76
*258 net77
*259 net78
*260 net79
*261 net8
*262 net80
*263 net81
*264 net82
*265 net83
*266 net84
*267 net85
*268 net86
*269 net87
*270 net88
*271 net89
*272 net9
*273 net90
*274 net91
*275 net92
*276 net93
*277 net94
*278 net95
*279 net96
*280 net97
*281 net98
*282 net99
*283 pwm\.PWM1\.c1\.cmp_out
*284 pwm\.PWM1\.c1\.count\[0\]
*285 pwm\.PWM1\.c1\.count\[1\]
*286 pwm\.PWM1\.c1\.count\[2\]
*287 pwm\.PWM1\.c1\.count\[3\]
*288 pwm\.PWM1\.c1\.count\[4\]
*289 pwm\.PWM1\.c1\.count\[5\]
*290 pwm\.PWM1\.c1\.count\[6\]
*291 pwm\.PWM1\.c1\.count\[7\]
*292 pwm\.PWM1\.d1\.q
*293 pwm\.PWM2\.c1\.cmp_out
*294 pwm\.PWM2\.c1\.count\[0\]
*295 pwm\.PWM2\.c1\.count\[1\]
*296 pwm\.PWM2\.c1\.count\[2\]
*297 pwm\.PWM2\.c1\.count\[3\]
*298 pwm\.PWM2\.c1\.count\[4\]
*299 pwm\.PWM2\.c1\.count\[5\]
*300 pwm\.PWM2\.c1\.count\[6\]
*301 pwm\.PWM2\.c1\.count\[7\]
*302 pwm\.PWM2\.d1\.q
*303 pwm\.PWM3\.c1\.cmp_out
*304 pwm\.PWM3\.c1\.count\[0\]
*305 pwm\.PWM3\.c1\.count\[1\]
*306 pwm\.PWM3\.c1\.count\[2\]
*307 pwm\.PWM3\.c1\.count\[3\]
*308 pwm\.PWM3\.c1\.count\[4\]
*309 pwm\.PWM3\.c1\.count\[5\]
*310 pwm\.PWM3\.c1\.count\[6\]
*311 pwm\.PWM3\.c1\.count\[7\]
*312 pwm\.PWM3\.d1\.q
*313 pwm\.dtg1\.dff1\.q
*314 pwm\.dtg1\.dff2\.q
*315 pwm\.dtg1\.dff3\.q
*316 pwm\.dtg1\.dff4\.q
*317 pwm\.dtg2\.dff1\.q
*318 pwm\.dtg2\.dff2\.q
*319 pwm\.dtg2\.dff3\.q
*320 pwm\.dtg2\.dff4\.q
*321 pwm\.dtg3\.dff1\.q
*322 pwm\.dtg3\.dff2\.q
*323 pwm\.dtg3\.dff3\.q
*324 pwm\.dtg3\.dff4\.q
*325 pwm\.latch1\.Q
*326 pwm\.latch2\.Q
*327 ANTENNA_1
*328 ANTENNA_2
*329 ANTENNA_3
*330 ANTENNA_4
*331 ANTENNA_5
*332 ANTENNA_6
*333 ANTENNA_7
*334 ANTENNA__135__A
*335 ANTENNA__137__A
*336 ANTENNA__150__A1
*337 ANTENNA__152__A
*338 ANTENNA__153__A
*339 ANTENNA__166__A
*340 ANTENNA__168__A1
*341 ANTENNA__170__A
*342 ANTENNA__183__A
*343 ANTENNA__185__A1
*344 ANTENNA__197__B
*345 ANTENNA__198__A2
*346 ANTENNA__199__A2
*347 ANTENNA__200__A2
*348 ANTENNA__200__B1
*349 ANTENNA__201__B1
*350 ANTENNA__203__A2
*351 ANTENNA__203__B1
*352 ANTENNA__204__B
*353 ANTENNA__205__B
*354 ANTENNA__207__A2
*355 ANTENNA__207__B1
*356 ANTENNA__208__A2
*357 ANTENNA__209__A2
*358 ANTENNA__213__A2
*359 ANTENNA__215__B
*360 ANTENNA__216__A2
*361 ANTENNA__216__B1
*362 ANTENNA__217__A2
*363 ANTENNA__218__A2
*364 ANTENNA__218__B1
*365 ANTENNA__219__A2
*366 ANTENNA__220__B
*367 ANTENNA__221__B1
*368 ANTENNA__223__A2
*369 ANTENNA__223__B1
*370 ANTENNA__224__A2
*371 ANTENNA__224__B1
*372 ANTENNA__227__A2
*373 ANTENNA__227__B1
*374 ANTENNA__228__A2
*375 ANTENNA__229__A2
*376 ANTENNA__229__B1
*377 ANTENNA__230__B1
*378 ANTENNA__232__A2
*379 ANTENNA__232__B1
*380 ANTENNA__233__A2
*381 ANTENNA__233__B1
*382 ANTENNA__235__B
*383 ANTENNA__236__A2
*384 ANTENNA__236__B1
*385 ANTENNA__238__A2
*386 ANTENNA__240__A2
*387 ANTENNA__243__A2
*388 ANTENNA__245__B
*389 ANTENNA__246__B
*390 ANTENNA__247__B
*391 ANTENNA__250__B
*392 ANTENNA__251__B
*393 ANTENNA__252__B
*394 ANTENNA__254__A
*395 ANTENNA__255__A
*396 ANTENNA__256__A
*397 ANTENNA__257__A
*398 ANTENNA__258__A
*399 ANTENNA__259__A
*400 ANTENNA__260__A
*401 ANTENNA__268__A
*402 ANTENNA__269__A
*403 ANTENNA__275__A
*404 ANTENNA__276__A
*405 ANTENNA__277__A
*406 ANTENNA__278__A
*407 ANTENNA__279__CLK
*408 ANTENNA__280__CLK
*409 ANTENNA__281__CLK
*410 ANTENNA__282__CLK
*411 ANTENNA__283__CLK
*412 ANTENNA__284__CLK
*413 ANTENNA__285__CLK
*414 ANTENNA__286__CLK
*415 ANTENNA__289__CLK
*416 ANTENNA__290__CLK
*417 ANTENNA__291__CLK
*418 ANTENNA__292__CLK
*419 ANTENNA__293__CLK
*420 ANTENNA__294__CLK
*421 ANTENNA__295__CLK
*422 ANTENNA__296__CLK
*423 ANTENNA__297__CLK
*424 ANTENNA__298__CLK
*425 ANTENNA__299__CLK
*426 ANTENNA__300__CLK
*427 ANTENNA__301__CLK
*428 ANTENNA__302__CLK
*429 ANTENNA__303__CLK
*430 ANTENNA__304__CLK
*431 ANTENNA__305__CLK
*432 ANTENNA__306__CLK
*433 ANTENNA__307__CLK
*434 ANTENNA__307__D
*435 ANTENNA__308__CLK
*436 ANTENNA__309__CLK
*437 ANTENNA__310__CLK
*438 ANTENNA__311__CLK
*439 ANTENNA__312__CLK
*440 ANTENNA__313__CLK
*441 ANTENNA__314__CLK
*442 ANTENNA__315__CLK
*443 ANTENNA__316__CLK
*444 ANTENNA__317__CLK
*445 ANTENNA__317__D
*446 ANTENNA__318__CLK
*447 ANTENNA__318__D
*448 ANTENNA__319__CLK
*449 ANTENNA__319__D
*450 ANTENNA_clkbuf_1_0_0_wb_clk_i_A
*451 ANTENNA_clkbuf_1_1_0_wb_clk_i_A
*452 ANTENNA_fanout17_A
*453 ANTENNA_fanout18_A
*454 ANTENNA_hold38_A
*455 ANTENNA_hold52_A
*456 ANTENNA_hold53_A
*457 ANTENNA_hold63_A
*458 ANTENNA_output11_A
*459 ANTENNA_output13_A
*460 ANTENNA_output15_A
*461 FILLER_0_0_109
*462 FILLER_0_0_113
*463 FILLER_0_0_125
*464 FILLER_0_0_137
*465 FILLER_0_0_141
*466 FILLER_0_0_15
*467 FILLER_0_0_153
*468 FILLER_0_0_165
*469 FILLER_0_0_169
*470 FILLER_0_0_181
*471 FILLER_0_0_193
*472 FILLER_0_0_197
*473 FILLER_0_0_209
*474 FILLER_0_0_221
*475 FILLER_0_0_225
*476 FILLER_0_0_237
*477 FILLER_0_0_249
*478 FILLER_0_0_253
*479 FILLER_0_0_265
*480 FILLER_0_0_27
*481 FILLER_0_0_277
*482 FILLER_0_0_281
*483 FILLER_0_0_29
*484 FILLER_0_0_293
*485 FILLER_0_0_3
*486 FILLER_0_0_305
*487 FILLER_0_0_309
*488 FILLER_0_0_321
*489 FILLER_0_0_333
*490 FILLER_0_0_337
*491 FILLER_0_0_349
*492 FILLER_0_0_361
*493 FILLER_0_0_365
*494 FILLER_0_0_377
*495 FILLER_0_0_389
*496 FILLER_0_0_393
*497 FILLER_0_0_405
*498 FILLER_0_0_41
*499 FILLER_0_0_417
*500 FILLER_0_0_421
*501 FILLER_0_0_433
*502 FILLER_0_0_445
*503 FILLER_0_0_449
*504 FILLER_0_0_461
*505 FILLER_0_0_473
*506 FILLER_0_0_493
*507 FILLER_0_0_501
*508 FILLER_0_0_505
*509 FILLER_0_0_517
*510 FILLER_0_0_529
*511 FILLER_0_0_53
*512 FILLER_0_0_533
*513 FILLER_0_0_545
*514 FILLER_0_0_557
*515 FILLER_0_0_561
*516 FILLER_0_0_57
*517 FILLER_0_0_573
*518 FILLER_0_0_585
*519 FILLER_0_0_589
*520 FILLER_0_0_601
*521 FILLER_0_0_613
*522 FILLER_0_0_617
*523 FILLER_0_0_69
*524 FILLER_0_0_81
*525 FILLER_0_0_85
*526 FILLER_0_0_97
*527 FILLER_0_1000_109
*528 FILLER_0_1000_121
*529 FILLER_0_1000_133
*530 FILLER_0_1000_139
*531 FILLER_0_1000_141
*532 FILLER_0_1000_15
*533 FILLER_0_1000_153
*534 FILLER_0_1000_165
*535 FILLER_0_1000_177
*536 FILLER_0_1000_189
*537 FILLER_0_1000_195
*538 FILLER_0_1000_197
*539 FILLER_0_1000_209
*540 FILLER_0_1000_221
*541 FILLER_0_1000_233
*542 FILLER_0_1000_245
*543 FILLER_0_1000_251
*544 FILLER_0_1000_253
*545 FILLER_0_1000_265
*546 FILLER_0_1000_27
*547 FILLER_0_1000_277
*548 FILLER_0_1000_289
*549 FILLER_0_1000_29
*550 FILLER_0_1000_3
*551 FILLER_0_1000_301
*552 FILLER_0_1000_307
*553 FILLER_0_1000_309
*554 FILLER_0_1000_321
*555 FILLER_0_1000_333
*556 FILLER_0_1000_345
*557 FILLER_0_1000_357
*558 FILLER_0_1000_363
*559 FILLER_0_1000_365
*560 FILLER_0_1000_377
*561 FILLER_0_1000_389
*562 FILLER_0_1000_401
*563 FILLER_0_1000_41
*564 FILLER_0_1000_413
*565 FILLER_0_1000_419
*566 FILLER_0_1000_421
*567 FILLER_0_1000_433
*568 FILLER_0_1000_445
*569 FILLER_0_1000_457
*570 FILLER_0_1000_469
*571 FILLER_0_1000_475
*572 FILLER_0_1000_477
*573 FILLER_0_1000_489
*574 FILLER_0_1000_501
*575 FILLER_0_1000_513
*576 FILLER_0_1000_525
*577 FILLER_0_1000_53
*578 FILLER_0_1000_531
*579 FILLER_0_1000_533
*580 FILLER_0_1000_545
*581 FILLER_0_1000_557
*582 FILLER_0_1000_569
*583 FILLER_0_1000_581
*584 FILLER_0_1000_587
*585 FILLER_0_1000_589
*586 FILLER_0_1000_601
*587 FILLER_0_1000_613
*588 FILLER_0_1000_65
*589 FILLER_0_1000_77
*590 FILLER_0_1000_83
*591 FILLER_0_1000_85
*592 FILLER_0_1000_97
*593 FILLER_0_1001_105
*594 FILLER_0_1001_111
*595 FILLER_0_1001_113
*596 FILLER_0_1001_125
*597 FILLER_0_1001_137
*598 FILLER_0_1001_149
*599 FILLER_0_1001_15
*600 FILLER_0_1001_161
*601 FILLER_0_1001_167
*602 FILLER_0_1001_169
*603 FILLER_0_1001_181
*604 FILLER_0_1001_193
*605 FILLER_0_1001_205
*606 FILLER_0_1001_217
*607 FILLER_0_1001_223
*608 FILLER_0_1001_225
*609 FILLER_0_1001_237
*610 FILLER_0_1001_249
*611 FILLER_0_1001_261
*612 FILLER_0_1001_27
*613 FILLER_0_1001_273
*614 FILLER_0_1001_279
*615 FILLER_0_1001_281
*616 FILLER_0_1001_293
*617 FILLER_0_1001_3
*618 FILLER_0_1001_305
*619 FILLER_0_1001_317
*620 FILLER_0_1001_329
*621 FILLER_0_1001_335
*622 FILLER_0_1001_337
*623 FILLER_0_1001_349
*624 FILLER_0_1001_361
*625 FILLER_0_1001_373
*626 FILLER_0_1001_385
*627 FILLER_0_1001_39
*628 FILLER_0_1001_391
*629 FILLER_0_1001_393
*630 FILLER_0_1001_405
*631 FILLER_0_1001_417
*632 FILLER_0_1001_429
*633 FILLER_0_1001_441
*634 FILLER_0_1001_447
*635 FILLER_0_1001_449
*636 FILLER_0_1001_461
*637 FILLER_0_1001_473
*638 FILLER_0_1001_485
*639 FILLER_0_1001_497
*640 FILLER_0_1001_503
*641 FILLER_0_1001_505
*642 FILLER_0_1001_51
*643 FILLER_0_1001_517
*644 FILLER_0_1001_529
*645 FILLER_0_1001_541
*646 FILLER_0_1001_55
*647 FILLER_0_1001_553
*648 FILLER_0_1001_559
*649 FILLER_0_1001_561
*650 FILLER_0_1001_57
*651 FILLER_0_1001_573
*652 FILLER_0_1001_585
*653 FILLER_0_1001_597
*654 FILLER_0_1001_609
*655 FILLER_0_1001_615
*656 FILLER_0_1001_617
*657 FILLER_0_1001_69
*658 FILLER_0_1001_81
*659 FILLER_0_1001_93
*660 FILLER_0_1002_109
*661 FILLER_0_1002_121
*662 FILLER_0_1002_133
*663 FILLER_0_1002_139
*664 FILLER_0_1002_141
*665 FILLER_0_1002_15
*666 FILLER_0_1002_153
*667 FILLER_0_1002_165
*668 FILLER_0_1002_177
*669 FILLER_0_1002_189
*670 FILLER_0_1002_195
*671 FILLER_0_1002_197
*672 FILLER_0_1002_209
*673 FILLER_0_1002_221
*674 FILLER_0_1002_233
*675 FILLER_0_1002_245
*676 FILLER_0_1002_251
*677 FILLER_0_1002_253
*678 FILLER_0_1002_265
*679 FILLER_0_1002_27
*680 FILLER_0_1002_277
*681 FILLER_0_1002_289
*682 FILLER_0_1002_29
*683 FILLER_0_1002_3
*684 FILLER_0_1002_301
*685 FILLER_0_1002_307
*686 FILLER_0_1002_309
*687 FILLER_0_1002_321
*688 FILLER_0_1002_333
*689 FILLER_0_1002_345
*690 FILLER_0_1002_357
*691 FILLER_0_1002_363
*692 FILLER_0_1002_365
*693 FILLER_0_1002_377
*694 FILLER_0_1002_389
*695 FILLER_0_1002_401
*696 FILLER_0_1002_41
*697 FILLER_0_1002_413
*698 FILLER_0_1002_419
*699 FILLER_0_1002_421
*700 FILLER_0_1002_433
*701 FILLER_0_1002_445
*702 FILLER_0_1002_457
*703 FILLER_0_1002_469
*704 FILLER_0_1002_475
*705 FILLER_0_1002_477
*706 FILLER_0_1002_489
*707 FILLER_0_1002_501
*708 FILLER_0_1002_513
*709 FILLER_0_1002_525
*710 FILLER_0_1002_53
*711 FILLER_0_1002_531
*712 FILLER_0_1002_533
*713 FILLER_0_1002_545
*714 FILLER_0_1002_557
*715 FILLER_0_1002_569
*716 FILLER_0_1002_581
*717 FILLER_0_1002_587
*718 FILLER_0_1002_589
*719 FILLER_0_1002_601
*720 FILLER_0_1002_613
*721 FILLER_0_1002_65
*722 FILLER_0_1002_77
*723 FILLER_0_1002_83
*724 FILLER_0_1002_85
*725 FILLER_0_1002_97
*726 FILLER_0_1003_105
*727 FILLER_0_1003_111
*728 FILLER_0_1003_113
*729 FILLER_0_1003_125
*730 FILLER_0_1003_137
*731 FILLER_0_1003_149
*732 FILLER_0_1003_15
*733 FILLER_0_1003_161
*734 FILLER_0_1003_167
*735 FILLER_0_1003_169
*736 FILLER_0_1003_181
*737 FILLER_0_1003_193
*738 FILLER_0_1003_205
*739 FILLER_0_1003_217
*740 FILLER_0_1003_223
*741 FILLER_0_1003_225
*742 FILLER_0_1003_237
*743 FILLER_0_1003_249
*744 FILLER_0_1003_261
*745 FILLER_0_1003_27
*746 FILLER_0_1003_273
*747 FILLER_0_1003_279
*748 FILLER_0_1003_281
*749 FILLER_0_1003_293
*750 FILLER_0_1003_3
*751 FILLER_0_1003_305
*752 FILLER_0_1003_317
*753 FILLER_0_1003_329
*754 FILLER_0_1003_335
*755 FILLER_0_1003_337
*756 FILLER_0_1003_349
*757 FILLER_0_1003_361
*758 FILLER_0_1003_373
*759 FILLER_0_1003_385
*760 FILLER_0_1003_39
*761 FILLER_0_1003_391
*762 FILLER_0_1003_393
*763 FILLER_0_1003_405
*764 FILLER_0_1003_417
*765 FILLER_0_1003_429
*766 FILLER_0_1003_441
*767 FILLER_0_1003_447
*768 FILLER_0_1003_449
*769 FILLER_0_1003_461
*770 FILLER_0_1003_473
*771 FILLER_0_1003_485
*772 FILLER_0_1003_497
*773 FILLER_0_1003_503
*774 FILLER_0_1003_505
*775 FILLER_0_1003_51
*776 FILLER_0_1003_517
*777 FILLER_0_1003_529
*778 FILLER_0_1003_541
*779 FILLER_0_1003_55
*780 FILLER_0_1003_553
*781 FILLER_0_1003_559
*782 FILLER_0_1003_561
*783 FILLER_0_1003_57
*784 FILLER_0_1003_573
*785 FILLER_0_1003_585
*786 FILLER_0_1003_597
*787 FILLER_0_1003_609
*788 FILLER_0_1003_615
*789 FILLER_0_1003_617
*790 FILLER_0_1003_69
*791 FILLER_0_1003_81
*792 FILLER_0_1003_93
*793 FILLER_0_1004_109
*794 FILLER_0_1004_121
*795 FILLER_0_1004_133
*796 FILLER_0_1004_139
*797 FILLER_0_1004_141
*798 FILLER_0_1004_15
*799 FILLER_0_1004_153
*800 FILLER_0_1004_165
*801 FILLER_0_1004_177
*802 FILLER_0_1004_189
*803 FILLER_0_1004_195
*804 FILLER_0_1004_197
*805 FILLER_0_1004_209
*806 FILLER_0_1004_221
*807 FILLER_0_1004_233
*808 FILLER_0_1004_245
*809 FILLER_0_1004_251
*810 FILLER_0_1004_253
*811 FILLER_0_1004_265
*812 FILLER_0_1004_27
*813 FILLER_0_1004_277
*814 FILLER_0_1004_289
*815 FILLER_0_1004_29
*816 FILLER_0_1004_3
*817 FILLER_0_1004_301
*818 FILLER_0_1004_307
*819 FILLER_0_1004_309
*820 FILLER_0_1004_321
*821 FILLER_0_1004_333
*822 FILLER_0_1004_345
*823 FILLER_0_1004_357
*824 FILLER_0_1004_363
*825 FILLER_0_1004_365
*826 FILLER_0_1004_377
*827 FILLER_0_1004_389
*828 FILLER_0_1004_401
*829 FILLER_0_1004_41
*830 FILLER_0_1004_413
*831 FILLER_0_1004_419
*832 FILLER_0_1004_421
*833 FILLER_0_1004_433
*834 FILLER_0_1004_445
*835 FILLER_0_1004_457
*836 FILLER_0_1004_469
*837 FILLER_0_1004_475
*838 FILLER_0_1004_477
*839 FILLER_0_1004_489
*840 FILLER_0_1004_501
*841 FILLER_0_1004_513
*842 FILLER_0_1004_525
*843 FILLER_0_1004_53
*844 FILLER_0_1004_531
*845 FILLER_0_1004_533
*846 FILLER_0_1004_545
*847 FILLER_0_1004_557
*848 FILLER_0_1004_569
*849 FILLER_0_1004_581
*850 FILLER_0_1004_587
*851 FILLER_0_1004_589
*852 FILLER_0_1004_601
*853 FILLER_0_1004_613
*854 FILLER_0_1004_65
*855 FILLER_0_1004_77
*856 FILLER_0_1004_83
*857 FILLER_0_1004_85
*858 FILLER_0_1004_97
*859 FILLER_0_1005_105
*860 FILLER_0_1005_111
*861 FILLER_0_1005_113
*862 FILLER_0_1005_125
*863 FILLER_0_1005_137
*864 FILLER_0_1005_149
*865 FILLER_0_1005_15
*866 FILLER_0_1005_161
*867 FILLER_0_1005_167
*868 FILLER_0_1005_169
*869 FILLER_0_1005_181
*870 FILLER_0_1005_193
*871 FILLER_0_1005_205
*872 FILLER_0_1005_217
*873 FILLER_0_1005_223
*874 FILLER_0_1005_225
*875 FILLER_0_1005_237
*876 FILLER_0_1005_249
*877 FILLER_0_1005_261
*878 FILLER_0_1005_27
*879 FILLER_0_1005_273
*880 FILLER_0_1005_279
*881 FILLER_0_1005_281
*882 FILLER_0_1005_293
*883 FILLER_0_1005_3
*884 FILLER_0_1005_305
*885 FILLER_0_1005_317
*886 FILLER_0_1005_329
*887 FILLER_0_1005_335
*888 FILLER_0_1005_337
*889 FILLER_0_1005_349
*890 FILLER_0_1005_361
*891 FILLER_0_1005_373
*892 FILLER_0_1005_385
*893 FILLER_0_1005_39
*894 FILLER_0_1005_391
*895 FILLER_0_1005_393
*896 FILLER_0_1005_405
*897 FILLER_0_1005_417
*898 FILLER_0_1005_429
*899 FILLER_0_1005_441
*900 FILLER_0_1005_447
*901 FILLER_0_1005_449
*902 FILLER_0_1005_461
*903 FILLER_0_1005_473
*904 FILLER_0_1005_485
*905 FILLER_0_1005_497
*906 FILLER_0_1005_503
*907 FILLER_0_1005_505
*908 FILLER_0_1005_51
*909 FILLER_0_1005_517
*910 FILLER_0_1005_529
*911 FILLER_0_1005_541
*912 FILLER_0_1005_55
*913 FILLER_0_1005_553
*914 FILLER_0_1005_559
*915 FILLER_0_1005_561
*916 FILLER_0_1005_57
*917 FILLER_0_1005_573
*918 FILLER_0_1005_585
*919 FILLER_0_1005_597
*920 FILLER_0_1005_609
*921 FILLER_0_1005_615
*922 FILLER_0_1005_617
*923 FILLER_0_1005_69
*924 FILLER_0_1005_81
*925 FILLER_0_1005_93
*926 FILLER_0_1006_109
*927 FILLER_0_1006_121
*928 FILLER_0_1006_133
*929 FILLER_0_1006_139
*930 FILLER_0_1006_141
*931 FILLER_0_1006_15
*932 FILLER_0_1006_153
*933 FILLER_0_1006_165
*934 FILLER_0_1006_177
*935 FILLER_0_1006_189
*936 FILLER_0_1006_195
*937 FILLER_0_1006_197
*938 FILLER_0_1006_209
*939 FILLER_0_1006_221
*940 FILLER_0_1006_233
*941 FILLER_0_1006_245
*942 FILLER_0_1006_251
*943 FILLER_0_1006_253
*944 FILLER_0_1006_265
*945 FILLER_0_1006_27
*946 FILLER_0_1006_277
*947 FILLER_0_1006_289
*948 FILLER_0_1006_29
*949 FILLER_0_1006_3
*950 FILLER_0_1006_301
*951 FILLER_0_1006_307
*952 FILLER_0_1006_309
*953 FILLER_0_1006_321
*954 FILLER_0_1006_333
*955 FILLER_0_1006_345
*956 FILLER_0_1006_357
*957 FILLER_0_1006_363
*958 FILLER_0_1006_365
*959 FILLER_0_1006_377
*960 FILLER_0_1006_389
*961 FILLER_0_1006_401
*962 FILLER_0_1006_41
*963 FILLER_0_1006_413
*964 FILLER_0_1006_419
*965 FILLER_0_1006_421
*966 FILLER_0_1006_433
*967 FILLER_0_1006_445
*968 FILLER_0_1006_457
*969 FILLER_0_1006_469
*970 FILLER_0_1006_475
*971 FILLER_0_1006_477
*972 FILLER_0_1006_489
*973 FILLER_0_1006_501
*974 FILLER_0_1006_513
*975 FILLER_0_1006_525
*976 FILLER_0_1006_53
*977 FILLER_0_1006_531
*978 FILLER_0_1006_533
*979 FILLER_0_1006_545
*980 FILLER_0_1006_557
*981 FILLER_0_1006_569
*982 FILLER_0_1006_581
*983 FILLER_0_1006_587
*984 FILLER_0_1006_589
*985 FILLER_0_1006_601
*986 FILLER_0_1006_613
*987 FILLER_0_1006_65
*988 FILLER_0_1006_77
*989 FILLER_0_1006_83
*990 FILLER_0_1006_85
*991 FILLER_0_1006_97
*992 FILLER_0_1007_105
*993 FILLER_0_1007_111
*994 FILLER_0_1007_113
*995 FILLER_0_1007_125
*996 FILLER_0_1007_137
*997 FILLER_0_1007_149
*998 FILLER_0_1007_15
*999 FILLER_0_1007_161
*1000 FILLER_0_1007_167
*1001 FILLER_0_1007_169
*1002 FILLER_0_1007_181
*1003 FILLER_0_1007_193
*1004 FILLER_0_1007_205
*1005 FILLER_0_1007_217
*1006 FILLER_0_1007_223
*1007 FILLER_0_1007_225
*1008 FILLER_0_1007_237
*1009 FILLER_0_1007_249
*1010 FILLER_0_1007_261
*1011 FILLER_0_1007_27
*1012 FILLER_0_1007_273
*1013 FILLER_0_1007_279
*1014 FILLER_0_1007_281
*1015 FILLER_0_1007_293
*1016 FILLER_0_1007_3
*1017 FILLER_0_1007_305
*1018 FILLER_0_1007_317
*1019 FILLER_0_1007_329
*1020 FILLER_0_1007_335
*1021 FILLER_0_1007_337
*1022 FILLER_0_1007_349
*1023 FILLER_0_1007_361
*1024 FILLER_0_1007_373
*1025 FILLER_0_1007_385
*1026 FILLER_0_1007_39
*1027 FILLER_0_1007_391
*1028 FILLER_0_1007_393
*1029 FILLER_0_1007_405
*1030 FILLER_0_1007_417
*1031 FILLER_0_1007_429
*1032 FILLER_0_1007_441
*1033 FILLER_0_1007_447
*1034 FILLER_0_1007_449
*1035 FILLER_0_1007_461
*1036 FILLER_0_1007_473
*1037 FILLER_0_1007_485
*1038 FILLER_0_1007_497
*1039 FILLER_0_1007_503
*1040 FILLER_0_1007_505
*1041 FILLER_0_1007_51
*1042 FILLER_0_1007_517
*1043 FILLER_0_1007_529
*1044 FILLER_0_1007_541
*1045 FILLER_0_1007_55
*1046 FILLER_0_1007_553
*1047 FILLER_0_1007_559
*1048 FILLER_0_1007_561
*1049 FILLER_0_1007_57
*1050 FILLER_0_1007_573
*1051 FILLER_0_1007_585
*1052 FILLER_0_1007_597
*1053 FILLER_0_1007_609
*1054 FILLER_0_1007_615
*1055 FILLER_0_1007_617
*1056 FILLER_0_1007_69
*1057 FILLER_0_1007_81
*1058 FILLER_0_1007_93
*1059 FILLER_0_1008_109
*1060 FILLER_0_1008_121
*1061 FILLER_0_1008_133
*1062 FILLER_0_1008_139
*1063 FILLER_0_1008_141
*1064 FILLER_0_1008_15
*1065 FILLER_0_1008_153
*1066 FILLER_0_1008_165
*1067 FILLER_0_1008_177
*1068 FILLER_0_1008_189
*1069 FILLER_0_1008_195
*1070 FILLER_0_1008_197
*1071 FILLER_0_1008_209
*1072 FILLER_0_1008_221
*1073 FILLER_0_1008_233
*1074 FILLER_0_1008_245
*1075 FILLER_0_1008_251
*1076 FILLER_0_1008_253
*1077 FILLER_0_1008_265
*1078 FILLER_0_1008_27
*1079 FILLER_0_1008_277
*1080 FILLER_0_1008_289
*1081 FILLER_0_1008_29
*1082 FILLER_0_1008_3
*1083 FILLER_0_1008_301
*1084 FILLER_0_1008_307
*1085 FILLER_0_1008_309
*1086 FILLER_0_1008_321
*1087 FILLER_0_1008_333
*1088 FILLER_0_1008_345
*1089 FILLER_0_1008_357
*1090 FILLER_0_1008_363
*1091 FILLER_0_1008_365
*1092 FILLER_0_1008_377
*1093 FILLER_0_1008_389
*1094 FILLER_0_1008_401
*1095 FILLER_0_1008_41
*1096 FILLER_0_1008_413
*1097 FILLER_0_1008_419
*1098 FILLER_0_1008_421
*1099 FILLER_0_1008_433
*1100 FILLER_0_1008_445
*1101 FILLER_0_1008_457
*1102 FILLER_0_1008_469
*1103 FILLER_0_1008_475
*1104 FILLER_0_1008_477
*1105 FILLER_0_1008_489
*1106 FILLER_0_1008_501
*1107 FILLER_0_1008_513
*1108 FILLER_0_1008_525
*1109 FILLER_0_1008_53
*1110 FILLER_0_1008_531
*1111 FILLER_0_1008_533
*1112 FILLER_0_1008_545
*1113 FILLER_0_1008_557
*1114 FILLER_0_1008_569
*1115 FILLER_0_1008_581
*1116 FILLER_0_1008_587
*1117 FILLER_0_1008_589
*1118 FILLER_0_1008_601
*1119 FILLER_0_1008_613
*1120 FILLER_0_1008_65
*1121 FILLER_0_1008_77
*1122 FILLER_0_1008_83
*1123 FILLER_0_1008_85
*1124 FILLER_0_1008_97
*1125 FILLER_0_1009_105
*1126 FILLER_0_1009_111
*1127 FILLER_0_1009_113
*1128 FILLER_0_1009_125
*1129 FILLER_0_1009_137
*1130 FILLER_0_1009_149
*1131 FILLER_0_1009_15
*1132 FILLER_0_1009_161
*1133 FILLER_0_1009_167
*1134 FILLER_0_1009_169
*1135 FILLER_0_1009_181
*1136 FILLER_0_1009_193
*1137 FILLER_0_1009_205
*1138 FILLER_0_1009_217
*1139 FILLER_0_1009_223
*1140 FILLER_0_1009_225
*1141 FILLER_0_1009_237
*1142 FILLER_0_1009_249
*1143 FILLER_0_1009_261
*1144 FILLER_0_1009_27
*1145 FILLER_0_1009_273
*1146 FILLER_0_1009_279
*1147 FILLER_0_1009_281
*1148 FILLER_0_1009_293
*1149 FILLER_0_1009_3
*1150 FILLER_0_1009_305
*1151 FILLER_0_1009_317
*1152 FILLER_0_1009_329
*1153 FILLER_0_1009_335
*1154 FILLER_0_1009_337
*1155 FILLER_0_1009_349
*1156 FILLER_0_1009_361
*1157 FILLER_0_1009_373
*1158 FILLER_0_1009_385
*1159 FILLER_0_1009_39
*1160 FILLER_0_1009_391
*1161 FILLER_0_1009_393
*1162 FILLER_0_1009_405
*1163 FILLER_0_1009_417
*1164 FILLER_0_1009_429
*1165 FILLER_0_1009_441
*1166 FILLER_0_1009_447
*1167 FILLER_0_1009_449
*1168 FILLER_0_1009_461
*1169 FILLER_0_1009_473
*1170 FILLER_0_1009_485
*1171 FILLER_0_1009_497
*1172 FILLER_0_1009_503
*1173 FILLER_0_1009_505
*1174 FILLER_0_1009_51
*1175 FILLER_0_1009_517
*1176 FILLER_0_1009_529
*1177 FILLER_0_1009_541
*1178 FILLER_0_1009_55
*1179 FILLER_0_1009_553
*1180 FILLER_0_1009_559
*1181 FILLER_0_1009_561
*1182 FILLER_0_1009_57
*1183 FILLER_0_1009_573
*1184 FILLER_0_1009_585
*1185 FILLER_0_1009_597
*1186 FILLER_0_1009_609
*1187 FILLER_0_1009_615
*1188 FILLER_0_1009_617
*1189 FILLER_0_1009_69
*1190 FILLER_0_1009_81
*1191 FILLER_0_1009_93
*1192 FILLER_0_100_109
*1193 FILLER_0_100_121
*1194 FILLER_0_100_133
*1195 FILLER_0_100_139
*1196 FILLER_0_100_141
*1197 FILLER_0_100_15
*1198 FILLER_0_100_153
*1199 FILLER_0_100_165
*1200 FILLER_0_100_177
*1201 FILLER_0_100_189
*1202 FILLER_0_100_195
*1203 FILLER_0_100_197
*1204 FILLER_0_100_209
*1205 FILLER_0_100_221
*1206 FILLER_0_100_233
*1207 FILLER_0_100_245
*1208 FILLER_0_100_251
*1209 FILLER_0_100_253
*1210 FILLER_0_100_265
*1211 FILLER_0_100_27
*1212 FILLER_0_100_277
*1213 FILLER_0_100_289
*1214 FILLER_0_100_29
*1215 FILLER_0_100_3
*1216 FILLER_0_100_301
*1217 FILLER_0_100_307
*1218 FILLER_0_100_309
*1219 FILLER_0_100_321
*1220 FILLER_0_100_333
*1221 FILLER_0_100_345
*1222 FILLER_0_100_357
*1223 FILLER_0_100_363
*1224 FILLER_0_100_365
*1225 FILLER_0_100_377
*1226 FILLER_0_100_389
*1227 FILLER_0_100_401
*1228 FILLER_0_100_41
*1229 FILLER_0_100_413
*1230 FILLER_0_100_419
*1231 FILLER_0_100_421
*1232 FILLER_0_100_433
*1233 FILLER_0_100_445
*1234 FILLER_0_100_457
*1235 FILLER_0_100_469
*1236 FILLER_0_100_475
*1237 FILLER_0_100_477
*1238 FILLER_0_100_489
*1239 FILLER_0_100_501
*1240 FILLER_0_100_513
*1241 FILLER_0_100_525
*1242 FILLER_0_100_53
*1243 FILLER_0_100_531
*1244 FILLER_0_100_533
*1245 FILLER_0_100_545
*1246 FILLER_0_100_557
*1247 FILLER_0_100_569
*1248 FILLER_0_100_581
*1249 FILLER_0_100_587
*1250 FILLER_0_100_589
*1251 FILLER_0_100_601
*1252 FILLER_0_100_613
*1253 FILLER_0_100_65
*1254 FILLER_0_100_77
*1255 FILLER_0_100_83
*1256 FILLER_0_100_85
*1257 FILLER_0_100_97
*1258 FILLER_0_1010_109
*1259 FILLER_0_1010_121
*1260 FILLER_0_1010_133
*1261 FILLER_0_1010_139
*1262 FILLER_0_1010_141
*1263 FILLER_0_1010_15
*1264 FILLER_0_1010_153
*1265 FILLER_0_1010_165
*1266 FILLER_0_1010_177
*1267 FILLER_0_1010_189
*1268 FILLER_0_1010_195
*1269 FILLER_0_1010_197
*1270 FILLER_0_1010_209
*1271 FILLER_0_1010_221
*1272 FILLER_0_1010_233
*1273 FILLER_0_1010_245
*1274 FILLER_0_1010_251
*1275 FILLER_0_1010_253
*1276 FILLER_0_1010_265
*1277 FILLER_0_1010_27
*1278 FILLER_0_1010_277
*1279 FILLER_0_1010_289
*1280 FILLER_0_1010_29
*1281 FILLER_0_1010_3
*1282 FILLER_0_1010_301
*1283 FILLER_0_1010_307
*1284 FILLER_0_1010_309
*1285 FILLER_0_1010_321
*1286 FILLER_0_1010_333
*1287 FILLER_0_1010_345
*1288 FILLER_0_1010_357
*1289 FILLER_0_1010_363
*1290 FILLER_0_1010_365
*1291 FILLER_0_1010_377
*1292 FILLER_0_1010_389
*1293 FILLER_0_1010_401
*1294 FILLER_0_1010_41
*1295 FILLER_0_1010_413
*1296 FILLER_0_1010_419
*1297 FILLER_0_1010_421
*1298 FILLER_0_1010_433
*1299 FILLER_0_1010_445
*1300 FILLER_0_1010_457
*1301 FILLER_0_1010_469
*1302 FILLER_0_1010_475
*1303 FILLER_0_1010_477
*1304 FILLER_0_1010_489
*1305 FILLER_0_1010_501
*1306 FILLER_0_1010_513
*1307 FILLER_0_1010_525
*1308 FILLER_0_1010_53
*1309 FILLER_0_1010_531
*1310 FILLER_0_1010_533
*1311 FILLER_0_1010_545
*1312 FILLER_0_1010_557
*1313 FILLER_0_1010_569
*1314 FILLER_0_1010_581
*1315 FILLER_0_1010_587
*1316 FILLER_0_1010_589
*1317 FILLER_0_1010_601
*1318 FILLER_0_1010_613
*1319 FILLER_0_1010_65
*1320 FILLER_0_1010_77
*1321 FILLER_0_1010_83
*1322 FILLER_0_1010_85
*1323 FILLER_0_1010_97
*1324 FILLER_0_1011_105
*1325 FILLER_0_1011_111
*1326 FILLER_0_1011_113
*1327 FILLER_0_1011_125
*1328 FILLER_0_1011_137
*1329 FILLER_0_1011_149
*1330 FILLER_0_1011_15
*1331 FILLER_0_1011_161
*1332 FILLER_0_1011_167
*1333 FILLER_0_1011_169
*1334 FILLER_0_1011_181
*1335 FILLER_0_1011_193
*1336 FILLER_0_1011_205
*1337 FILLER_0_1011_217
*1338 FILLER_0_1011_223
*1339 FILLER_0_1011_225
*1340 FILLER_0_1011_237
*1341 FILLER_0_1011_249
*1342 FILLER_0_1011_261
*1343 FILLER_0_1011_27
*1344 FILLER_0_1011_273
*1345 FILLER_0_1011_279
*1346 FILLER_0_1011_281
*1347 FILLER_0_1011_293
*1348 FILLER_0_1011_3
*1349 FILLER_0_1011_305
*1350 FILLER_0_1011_317
*1351 FILLER_0_1011_329
*1352 FILLER_0_1011_335
*1353 FILLER_0_1011_337
*1354 FILLER_0_1011_349
*1355 FILLER_0_1011_361
*1356 FILLER_0_1011_373
*1357 FILLER_0_1011_385
*1358 FILLER_0_1011_39
*1359 FILLER_0_1011_391
*1360 FILLER_0_1011_393
*1361 FILLER_0_1011_405
*1362 FILLER_0_1011_417
*1363 FILLER_0_1011_429
*1364 FILLER_0_1011_441
*1365 FILLER_0_1011_447
*1366 FILLER_0_1011_449
*1367 FILLER_0_1011_461
*1368 FILLER_0_1011_473
*1369 FILLER_0_1011_485
*1370 FILLER_0_1011_497
*1371 FILLER_0_1011_503
*1372 FILLER_0_1011_505
*1373 FILLER_0_1011_51
*1374 FILLER_0_1011_517
*1375 FILLER_0_1011_529
*1376 FILLER_0_1011_541
*1377 FILLER_0_1011_55
*1378 FILLER_0_1011_553
*1379 FILLER_0_1011_559
*1380 FILLER_0_1011_561
*1381 FILLER_0_1011_57
*1382 FILLER_0_1011_573
*1383 FILLER_0_1011_585
*1384 FILLER_0_1011_597
*1385 FILLER_0_1011_609
*1386 FILLER_0_1011_615
*1387 FILLER_0_1011_617
*1388 FILLER_0_1011_69
*1389 FILLER_0_1011_81
*1390 FILLER_0_1011_93
*1391 FILLER_0_1012_109
*1392 FILLER_0_1012_121
*1393 FILLER_0_1012_133
*1394 FILLER_0_1012_139
*1395 FILLER_0_1012_141
*1396 FILLER_0_1012_15
*1397 FILLER_0_1012_153
*1398 FILLER_0_1012_165
*1399 FILLER_0_1012_177
*1400 FILLER_0_1012_189
*1401 FILLER_0_1012_195
*1402 FILLER_0_1012_197
*1403 FILLER_0_1012_209
*1404 FILLER_0_1012_221
*1405 FILLER_0_1012_233
*1406 FILLER_0_1012_245
*1407 FILLER_0_1012_251
*1408 FILLER_0_1012_253
*1409 FILLER_0_1012_265
*1410 FILLER_0_1012_27
*1411 FILLER_0_1012_277
*1412 FILLER_0_1012_289
*1413 FILLER_0_1012_29
*1414 FILLER_0_1012_3
*1415 FILLER_0_1012_301
*1416 FILLER_0_1012_307
*1417 FILLER_0_1012_309
*1418 FILLER_0_1012_321
*1419 FILLER_0_1012_333
*1420 FILLER_0_1012_345
*1421 FILLER_0_1012_357
*1422 FILLER_0_1012_363
*1423 FILLER_0_1012_365
*1424 FILLER_0_1012_377
*1425 FILLER_0_1012_389
*1426 FILLER_0_1012_401
*1427 FILLER_0_1012_41
*1428 FILLER_0_1012_413
*1429 FILLER_0_1012_419
*1430 FILLER_0_1012_421
*1431 FILLER_0_1012_433