*SPEF "ieee 1481-1999"
*DESIGN "user_proj_pwm"
*DATE "11:11:11 Fri 11 11, 1111"
*VENDOR "OpenRCX"
*PROGRAM "Parallel Extraction"
*VERSION "1.0"
*DESIGN_FLOW "NAME_SCOPE LOCAL" "PIN_CAP NONE"
*DIVIDER /
*DELIMITER :
*BUS_DELIMITER []
*T_UNIT 1 NS
*C_UNIT 1 PF
*R_UNIT 1 OHM
*L_UNIT 1 HENRY

*NAME_MAP
*1 io_in[0]
*2 io_in[10]
*3 io_in[11]
*4 io_in[12]
*5 io_in[13]
*6 io_in[14]
*7 io_in[1]
*8 io_in[2]
*9 io_in[3]
*10 io_in[4]
*11 io_in[5]
*12 io_in[6]
*13 io_in[7]
*14 io_in[8]
*15 io_in[9]
*16 net42
*17 net28
*18 net29
*19 net30
*20 net31
*21 net32
*22 net19
*23 net20
*24 net21
*25 net22
*26 net23
*27 net24
*28 net25
*29 net26
*30 net27
*31 net33
*32 io_out[10]
*33 io_out[11]
*34 io_out[12]
*35 io_out[13]
*36 io_out[14]
*37 net34
*38 net35
*39 net36
*40 net37
*41 net38
*42 net39
*43 net40
*44 net41
*45 io_out[9]
*48 wb_clk_i
*49 wb_rst_i
*50 _000_
*51 _001_
*52 _002_
*53 _003_
*54 _004_
*55 _005_
*56 _006_
*57 _007_
*58 _008_
*59 _009_
*60 _010_
*61 _011_
*62 _012_
*63 _013_
*64 _014_
*65 _015_
*66 _016_
*67 _017_
*68 _018_
*69 _019_
*70 _020_
*71 _021_
*72 _022_
*73 _023_
*74 _024_
*75 _025_
*76 _026_
*77 _027_
*78 _028_
*79 _029_
*80 _030_
*81 _031_
*82 _032_
*83 _033_
*84 _034_
*85 _035_
*86 _036_
*87 _037_
*88 _038_
*89 _039_
*90 _040_
*91 _041_
*92 _042_
*93 _043_
*94 _044_
*95 _045_
*96 _046_
*97 _047_
*98 _048_
*99 _049_
*100 _050_
*101 _051_
*102 _052_
*103 _053_
*104 _054_
*105 _055_
*106 _056_
*107 _057_
*108 _058_
*109 _059_
*110 _060_
*111 _061_
*112 _062_
*113 _063_
*114 _064_
*115 _065_
*116 _066_
*117 _067_
*118 _068_
*119 _069_
*120 _070_
*121 _071_
*122 _072_
*123 _073_
*124 _074_
*125 _075_
*126 _076_
*127 _077_
*128 _078_
*129 _079_
*130 _080_
*131 _081_
*132 _082_
*133 _083_
*134 _084_
*135 _085_
*136 _086_
*137 _087_
*138 _088_
*139 _089_
*140 _090_
*141 _091_
*142 _092_
*143 _093_
*144 _094_
*145 _095_
*146 _096_
*147 _097_
*148 _098_
*149 _099_
*150 _100_
*151 _101_
*152 _102_
*153 _103_
*154 _104_
*155 _105_
*156 _106_
*157 _107_
*158 _108_
*159 _109_
*160 _110_
*161 _111_
*162 _112_
*163 _113_
*164 _114_
*165 _115_
*166 _116_
*167 _117_
*168 _118_
*169 _119_
*170 _120_
*171 _121_
*172 _122_
*173 _123_
*174 _124_
*175 _125_
*176 _126_
*177 _127_
*178 _128_
*179 _129_
*180 _130_
*181 _131_
*182 _132_
*183 _133_
*184 _134_
*185 clknet_0_wb_clk_i
*186 clknet_1_0_0_wb_clk_i
*187 clknet_1_1_0_wb_clk_i
*188 clknet_2_0__leaf_wb_clk_i
*189 clknet_2_1__leaf_wb_clk_i
*190 clknet_2_2__leaf_wb_clk_i
*191 clknet_2_3__leaf_wb_clk_i
*192 net1
*193 net10
*194 net100
*195 net101
*196 net102
*197 net103
*198 net104
*199 net105
*200 net106
*201 net107
*202 net108
*203 net109
*204 net11
*205 net110
*206 net111
*207 net112
*208 net12
*209 net13
*210 net14
*211 net15
*212 net16
*213 net17
*214 net18
*215 net2
*216 net3
*217 net4
*218 net43
*219 net44
*220 net45
*221 net46
*222 net47
*223 net48
*224 net49
*225 net5
*226 net50
*227 net51
*228 net52
*229 net53
*230 net54
*231 net55
*232 net56
*233 net57
*234 net58
*235 net59
*236 net6
*237 net60
*238 net61
*239 net62
*240 net63
*241 net64
*242 net65
*243 net66
*244 net67
*245 net68
*246 net69
*247 net7
*248 net70
*249 net71
*250 net72
*251 net73
*252 net74
*253 net75
*254 net76
*255 net77
*256 net78
*257 net79
*258 net8
*259 net80
*260 net81
*261 net82
*262 net83
*263 net84
*264 net85
*265 net86
*266 net87
*267 net88
*268 net89
*269 net9
*270 net90
*271 net91
*272 net92
*273 net93
*274 net94
*275 net95
*276 net96
*277 net97
*278 net98
*279 net99
*280 pwm\.PWM1\.c1\.cmp_out
*281 pwm\.PWM1\.c1\.count\[0\]
*282 pwm\.PWM1\.c1\.count\[1\]
*283 pwm\.PWM1\.c1\.count\[2\]
*284 pwm\.PWM1\.c1\.count\[3\]
*285 pwm\.PWM1\.c1\.count\[4\]
*286 pwm\.PWM1\.c1\.count\[5\]
*287 pwm\.PWM1\.c1\.count\[6\]
*288 pwm\.PWM1\.c1\.count\[7\]
*289 pwm\.PWM1\.d1\.q
*290 pwm\.PWM2\.c1\.cmp_out
*291 pwm\.PWM2\.c1\.count\[0\]
*292 pwm\.PWM2\.c1\.count\[1\]
*293 pwm\.PWM2\.c1\.count\[2\]
*294 pwm\.PWM2\.c1\.count\[3\]
*295 pwm\.PWM2\.c1\.count\[4\]
*296 pwm\.PWM2\.c1\.count\[5\]
*297 pwm\.PWM2\.c1\.count\[6\]
*298 pwm\.PWM2\.c1\.count\[7\]
*299 pwm\.PWM2\.d1\.q
*300 pwm\.PWM3\.c1\.cmp_out
*301 pwm\.PWM3\.c1\.count\[0\]
*302 pwm\.PWM3\.c1\.count\[1\]
*303 pwm\.PWM3\.c1\.count\[2\]
*304 pwm\.PWM3\.c1\.count\[3\]
*305 pwm\.PWM3\.c1\.count\[4\]
*306 pwm\.PWM3\.c1\.count\[5\]
*307 pwm\.PWM3\.c1\.count\[6\]
*308 pwm\.PWM3\.c1\.count\[7\]
*309 pwm\.PWM3\.d1\.q
*310 pwm\.dtg1\.dff1\.q
*311 pwm\.dtg1\.dff2\.q
*312 pwm\.dtg1\.dff3\.q
*313 pwm\.dtg1\.dff4\.q
*314 pwm\.dtg2\.dff1\.q
*315 pwm\.dtg2\.dff2\.q
*316 pwm\.dtg2\.dff3\.q
*317 pwm\.dtg2\.dff4\.q
*318 pwm\.dtg3\.dff1\.q
*319 pwm\.dtg3\.dff2\.q
*320 pwm\.dtg3\.dff3\.q
*321 pwm\.dtg3\.dff4\.q
*322 pwm\.latch1\.Q
*323 pwm\.latch2\.Q
*324 ANTENNA_1
*325 ANTENNA_2
*326 ANTENNA_3
*327 ANTENNA_4
*328 ANTENNA__135__A
*329 ANTENNA__137__A
*330 ANTENNA__150__A1
*331 ANTENNA__152__A
*332 ANTENNA__153__A
*333 ANTENNA__166__A
*334 ANTENNA__168__A1
*335 ANTENNA__170__A
*336 ANTENNA__183__A
*337 ANTENNA__185__A1
*338 ANTENNA__197__B
*339 ANTENNA__198__A2
*340 ANTENNA__199__A2
*341 ANTENNA__200__A2
*342 ANTENNA__200__B1
*343 ANTENNA__201__B1
*344 ANTENNA__203__A2
*345 ANTENNA__203__B1
*346 ANTENNA__204__B
*347 ANTENNA__205__B
*348 ANTENNA__207__A2
*349 ANTENNA__207__B1
*350 ANTENNA__208__A2
*351 ANTENNA__209__A2
*352 ANTENNA__213__A2
*353 ANTENNA__215__B
*354 ANTENNA__216__A2
*355 ANTENNA__216__B1
*356 ANTENNA__217__A2
*357 ANTENNA__218__A2
*358 ANTENNA__218__B1
*359 ANTENNA__219__A2
*360 ANTENNA__220__B
*361 ANTENNA__221__B1
*362 ANTENNA__223__A2
*363 ANTENNA__223__B1
*364 ANTENNA__224__A2
*365 ANTENNA__224__B1
*366 ANTENNA__227__A2
*367 ANTENNA__227__B1
*368 ANTENNA__228__A2
*369 ANTENNA__229__A2
*370 ANTENNA__229__B1
*371 ANTENNA__230__B1
*372 ANTENNA__232__A2
*373 ANTENNA__232__B1
*374 ANTENNA__233__A2
*375 ANTENNA__233__B1
*376 ANTENNA__235__B
*377 ANTENNA__236__A2
*378 ANTENNA__236__B1
*379 ANTENNA__238__A2
*380 ANTENNA__240__A2
*381 ANTENNA__243__A2
*382 ANTENNA__245__B
*383 ANTENNA__246__B
*384 ANTENNA__247__B
*385 ANTENNA__250__B
*386 ANTENNA__251__B
*387 ANTENNA__252__B
*388 ANTENNA__254__A
*389 ANTENNA__255__A
*390 ANTENNA__256__A
*391 ANTENNA__257__A
*392 ANTENNA__258__A
*393 ANTENNA__259__A
*394 ANTENNA__260__A
*395 ANTENNA__266__A
*396 ANTENNA__267__A
*397 ANTENNA__268__A
*398 ANTENNA__269__A
*399 ANTENNA__277__A
*400 ANTENNA__278__A
*401 ANTENNA__279__CLK
*402 ANTENNA__280__CLK
*403 ANTENNA__281__CLK
*404 ANTENNA__282__CLK
*405 ANTENNA__283__CLK
*406 ANTENNA__284__CLK
*407 ANTENNA__285__CLK
*408 ANTENNA__286__CLK
*409 ANTENNA__289__CLK
*410 ANTENNA__290__CLK
*411 ANTENNA__291__CLK
*412 ANTENNA__292__CLK
*413 ANTENNA__293__CLK
*414 ANTENNA__294__CLK
*415 ANTENNA__295__CLK
*416 ANTENNA__296__CLK
*417 ANTENNA__297__CLK
*418 ANTENNA__298__CLK
*419 ANTENNA__299__CLK
*420 ANTENNA__300__CLK
*421 ANTENNA__301__CLK
*422 ANTENNA__302__CLK
*423 ANTENNA__303__CLK
*424 ANTENNA__304__CLK
*425 ANTENNA__305__CLK
*426 ANTENNA__306__CLK
*427 ANTENNA__307__CLK
*428 ANTENNA__307__D
*429 ANTENNA__308__CLK
*430 ANTENNA__309__CLK
*431 ANTENNA__310__CLK
*432 ANTENNA__311__CLK
*433 ANTENNA__312__CLK
*434 ANTENNA__313__CLK
*435 ANTENNA__314__CLK
*436 ANTENNA__315__CLK
*437 ANTENNA__316__CLK
*438 ANTENNA__317__CLK
*439 ANTENNA__317__D
*440 ANTENNA__318__CLK
*441 ANTENNA__318__D
*442 ANTENNA__319__CLK
*443 ANTENNA__319__D
*444 ANTENNA_clkbuf_1_0_0_wb_clk_i_A
*445 ANTENNA_clkbuf_1_1_0_wb_clk_i_A
*446 ANTENNA_fanout17_A
*447 ANTENNA_fanout18_A
*448 ANTENNA_hold33_A
*449 ANTENNA_hold54_A
*450 ANTENNA_hold55_A
*451 ANTENNA_output11_A
*452 ANTENNA_output13_A
*453 ANTENNA_output15_A
*454 FILLER_0_0_109
*455 FILLER_0_0_113
*456 FILLER_0_0_125
*457 FILLER_0_0_137
*458 FILLER_0_0_141
*459 FILLER_0_0_15
*460 FILLER_0_0_153
*461 FILLER_0_0_165
*462 FILLER_0_0_169
*463 FILLER_0_0_181
*464 FILLER_0_0_193
*465 FILLER_0_0_197
*466 FILLER_0_0_209
*467 FILLER_0_0_221
*468 FILLER_0_0_225
*469 FILLER_0_0_237
*470 FILLER_0_0_249
*471 FILLER_0_0_253
*472 FILLER_0_0_265
*473 FILLER_0_0_27
*474 FILLER_0_0_277
*475 FILLER_0_0_281
*476 FILLER_0_0_29
*477 FILLER_0_0_293
*478 FILLER_0_0_3
*479 FILLER_0_0_305
*480 FILLER_0_0_309
*481 FILLER_0_0_313
*482 FILLER_0_0_334
*483 FILLER_0_0_337
*484 FILLER_0_0_349
*485 FILLER_0_0_361
*486 FILLER_0_0_365
*487 FILLER_0_0_377
*488 FILLER_0_0_389
*489 FILLER_0_0_393
*490 FILLER_0_0_405
*491 FILLER_0_0_41
*492 FILLER_0_0_53
*493 FILLER_0_0_57
*494 FILLER_0_0_69
*495 FILLER_0_0_81
*496 FILLER_0_0_85
*497 FILLER_0_0_97
*498 FILLER_0_1000_109
*499 FILLER_0_1000_121
*500 FILLER_0_1000_133
*501 FILLER_0_1000_139
*502 FILLER_0_1000_141
*503 FILLER_0_1000_15
*504 FILLER_0_1000_153
*505 FILLER_0_1000_165
*506 FILLER_0_1000_177
*507 FILLER_0_1000_189
*508 FILLER_0_1000_195
*509 FILLER_0_1000_197
*510 FILLER_0_1000_209
*511 FILLER_0_1000_221
*512 FILLER_0_1000_233
*513 FILLER_0_1000_245
*514 FILLER_0_1000_251
*515 FILLER_0_1000_253
*516 FILLER_0_1000_265
*517 FILLER_0_1000_27
*518 FILLER_0_1000_277
*519 FILLER_0_1000_289
*520 FILLER_0_1000_29
*521 FILLER_0_1000_3
*522 FILLER_0_1000_301
*523 FILLER_0_1000_307
*524 FILLER_0_1000_309
*525 FILLER_0_1000_321
*526 FILLER_0_1000_333
*527 FILLER_0_1000_345
*528 FILLER_0_1000_357
*529 FILLER_0_1000_363
*530 FILLER_0_1000_365
*531 FILLER_0_1000_377
*532 FILLER_0_1000_389
*533 FILLER_0_1000_401
*534 FILLER_0_1000_41
*535 FILLER_0_1000_53
*536 FILLER_0_1000_65
*537 FILLER_0_1000_77
*538 FILLER_0_1000_83
*539 FILLER_0_1000_85
*540 FILLER_0_1000_97
*541 FILLER_0_1001_105
*542 FILLER_0_1001_111
*543 FILLER_0_1001_113
*544 FILLER_0_1001_125
*545 FILLER_0_1001_137
*546 FILLER_0_1001_149
*547 FILLER_0_1001_15
*548 FILLER_0_1001_161
*549 FILLER_0_1001_167
*550 FILLER_0_1001_169
*551 FILLER_0_1001_181
*552 FILLER_0_1001_193
*553 FILLER_0_1001_205
*554 FILLER_0_1001_217
*555 FILLER_0_1001_223
*556 FILLER_0_1001_225
*557 FILLER_0_1001_237
*558 FILLER_0_1001_249
*559 FILLER_0_1001_261
*560 FILLER_0_1001_27
*561 FILLER_0_1001_273
*562 FILLER_0_1001_279
*563 FILLER_0_1001_281
*564 FILLER_0_1001_293
*565 FILLER_0_1001_3
*566 FILLER_0_1001_305
*567 FILLER_0_1001_317
*568 FILLER_0_1001_329
*569 FILLER_0_1001_335
*570 FILLER_0_1001_337
*571 FILLER_0_1001_349
*572 FILLER_0_1001_361
*573 FILLER_0_1001_373
*574 FILLER_0_1001_385
*575 FILLER_0_1001_39
*576 FILLER_0_1001_391
*577 FILLER_0_1001_393
*578 FILLER_0_1001_405
*579 FILLER_0_1001_51
*580 FILLER_0_1001_55
*581 FILLER_0_1001_57
*582 FILLER_0_1001_69
*583 FILLER_0_1001_81
*584 FILLER_0_1001_93
*585 FILLER_0_1002_109
*586 FILLER_0_1002_121
*587 FILLER_0_1002_133
*588 FILLER_0_1002_139
*589 FILLER_0_1002_141
*590 FILLER_0_1002_15
*591 FILLER_0_1002_153
*592 FILLER_0_1002_165
*593 FILLER_0_1002_177
*594 FILLER_0_1002_189
*595 FILLER_0_1002_195
*596 FILLER_0_1002_197
*597 FILLER_0_1002_209
*598 FILLER_0_1002_221
*599 FILLER_0_1002_233
*600 FILLER_0_1002_245
*601 FILLER_0_1002_251
*602 FILLER_0_1002_253
*603 FILLER_0_1002_265
*604 FILLER_0_1002_27
*605 FILLER_0_1002_277
*606 FILLER_0_1002_289
*607 FILLER_0_1002_29
*608 FILLER_0_1002_3
*609 FILLER_0_1002_301
*610 FILLER_0_1002_307
*611 FILLER_0_1002_309
*612 FILLER_0_1002_321
*613 FILLER_0_1002_333
*614 FILLER_0_1002_345
*615 FILLER_0_1002_357
*616 FILLER_0_1002_363
*617 FILLER_0_1002_365
*618 FILLER_0_1002_377
*619 FILLER_0_1002_389
*620 FILLER_0_1002_401
*621 FILLER_0_1002_41
*622 FILLER_0_1002_53
*623 FILLER_0_1002_65
*624 FILLER_0_1002_77
*625 FILLER_0_1002_83
*626 FILLER_0_1002_85
*627 FILLER_0_1002_97
*628 FILLER_0_1003_105
*629 FILLER_0_1003_111
*630 FILLER_0_1003_113
*631 FILLER_0_1003_125
*632 FILLER_0_1003_137
*633 FILLER_0_1003_149
*634 FILLER_0_1003_15
*635 FILLER_0_1003_161
*636 FILLER_0_1003_167
*637 FILLER_0_1003_169
*638 FILLER_0_1003_181
*639 FILLER_0_1003_193
*640 FILLER_0_1003_205
*641 FILLER_0_1003_217
*642 FILLER_0_1003_223
*643 FILLER_0_1003_225
*644 FILLER_0_1003_237
*645 FILLER_0_1003_249
*646 FILLER_0_1003_261
*647 FILLER_0_1003_27
*648 FILLER_0_1003_273
*649 FILLER_0_1003_279
*650 FILLER_0_1003_281
*651 FILLER_0_1003_293
*652 FILLER_0_1003_3
*653 FILLER_0_1003_305
*654 FILLER_0_1003_317
*655 FILLER_0_1003_329
*656 FILLER_0_1003_335
*657 FILLER_0_1003_337
*658 FILLER_0_1003_349
*659 FILLER_0_1003_361
*660 FILLER_0_1003_373
*661 FILLER_0_1003_385
*662 FILLER_0_1003_39
*663 FILLER_0_1003_391
*664 FILLER_0_1003_393
*665 FILLER_0_1003_405
*666 FILLER_0_1003_51
*667 FILLER_0_1003_55
*668 FILLER_0_1003_57
*669 FILLER_0_1003_69
*670 FILLER_0_1003_81
*671 FILLER_0_1003_93
*672 FILLER_0_1004_109
*673 FILLER_0_1004_121
*674 FILLER_0_1004_133
*675 FILLER_0_1004_139
*676 FILLER_0_1004_141
*677 FILLER_0_1004_15
*678 FILLER_0_1004_153
*679 FILLER_0_1004_165
*680 FILLER_0_1004_177
*681 FILLER_0_1004_189
*682 FILLER_0_1004_195
*683 FILLER_0_1004_197
*684 FILLER_0_1004_209
*685 FILLER_0_1004_221
*686 FILLER_0_1004_233
*687 FILLER_0_1004_245
*688 FILLER_0_1004_251
*689 FILLER_0_1004_253
*690 FILLER_0_1004_265
*691 FILLER_0_1004_27
*692 FILLER_0_1004_277
*693 FILLER_0_1004_289
*694 FILLER_0_1004_29
*695 FILLER_0_1004_3
*696 FILLER_0_1004_301
*697 FILLER_0_1004_307
*698 FILLER_0_1004_309
*699 FILLER_0_1004_321
*700 FILLER_0_1004_333
*701 FILLER_0_1004_345
*702 FILLER_0_1004_357
*703 FILLER_0_1004_363
*704 FILLER_0_1004_365
*705 FILLER_0_1004_377
*706 FILLER_0_1004_389
*707 FILLER_0_1004_401
*708 FILLER_0_1004_41
*709 FILLER_0_1004_53
*710 FILLER_0_1004_65
*711 FILLER_0_1004_77
*712 FILLER_0_1004_83
*713 FILLER_0_1004_85
*714 FILLER_0_1004_97
*715 FILLER_0_1005_105
*716 FILLER_0_1005_111
*717 FILLER_0_1005_113
*718 FILLER_0_1005_125
*719 FILLER_0_1005_137
*720 FILLER_0_1005_149
*721 FILLER_0_1005_15
*722 FILLER_0_1005_161
*723 FILLER_0_1005_167
*724 FILLER_0_1005_169
*725 FILLER_0_1005_181
*726 FILLER_0_1005_193
*727 FILLER_0_1005_205
*728 FILLER_0_1005_217
*729 FILLER_0_1005_223
*730 FILLER_0_1005_225
*731 FILLER_0_1005_237
*732 FILLER_0_1005_249
*733 FILLER_0_1005_261
*734 FILLER_0_1005_27
*735 FILLER_0_1005_273
*736 FILLER_0_1005_279
*737 FILLER_0_1005_281
*738 FILLER_0_1005_293
*739 FILLER_0_1005_3
*740 FILLER_0_1005_305
*741 FILLER_0_1005_317
*742 FILLER_0_1005_329
*743 FILLER_0_1005_335
*744 FILLER_0_1005_337
*745 FILLER_0_1005_349
*746 FILLER_0_1005_361
*747 FILLER_0_1005_373
*748 FILLER_0_1005_385
*749 FILLER_0_1005_39
*750 FILLER_0_1005_391
*751 FILLER_0_1005_393
*752 FILLER_0_1005_405
*753 FILLER_0_1005_51
*754 FILLER_0_1005_55
*755 FILLER_0_1005_57
*756 FILLER_0_1005_69
*757 FILLER_0_1005_81
*758 FILLER_0_1005_93
*759 FILLER_0_1006_109
*760 FILLER_0_1006_121
*761 FILLER_0_1006_133
*762 FILLER_0_1006_139
*763 FILLER_0_1006_141
*764 FILLER_0_1006_15
*765 FILLER_0_1006_153
*766 FILLER_0_1006_165
*767 FILLER_0_1006_177
*768 FILLER_0_1006_189
*769 FILLER_0_1006_195
*770 FILLER_0_1006_197
*771 FILLER_0_1006_209
*772 FILLER_0_1006_221
*773 FILLER_0_1006_233
*774 FILLER_0_1006_245
*775 FILLER_0_1006_251
*776 FILLER_0_1006_253
*777 FILLER_0_1006_265
*778 FILLER_0_1006_27
*779 FILLER_0_1006_277
*780 FILLER_0_1006_289
*781 FILLER_0_1006_29
*782 FILLER_0_1006_3
*783 FILLER_0_1006_301
*784 FILLER_0_1006_307
*785 FILLER_0_1006_309
*786 FILLER_0_1006_321
*787 FILLER_0_1006_333
*788 FILLER_0_1006_345
*789 FILLER_0_1006_357
*790 FILLER_0_1006_363
*791 FILLER_0_1006_365
*792 FILLER_0_1006_377
*793 FILLER_0_1006_389
*794 FILLER_0_1006_401
*795 FILLER_0_1006_41
*796 FILLER_0_1006_53
*797 FILLER_0_1006_65
*798 FILLER_0_1006_77
*799 FILLER_0_1006_83
*800 FILLER_0_1006_85
*801 FILLER_0_1006_97
*802 FILLER_0_1007_105
*803 FILLER_0_1007_111
*804 FILLER_0_1007_113
*805 FILLER_0_1007_125
*806 FILLER_0_1007_137
*807 FILLER_0_1007_149
*808 FILLER_0_1007_15
*809 FILLER_0_1007_161
*810 FILLER_0_1007_167
*811 FILLER_0_1007_169
*812 FILLER_0_1007_181
*813 FILLER_0_1007_193
*814 FILLER_0_1007_205
*815 FILLER_0_1007_217
*816 FILLER_0_1007_223
*817 FILLER_0_1007_225
*818 FILLER_0_1007_237
*819 FILLER_0_1007_249
*820 FILLER_0_1007_261
*821 FILLER_0_1007_27
*822 FILLER_0_1007_273
*823 FILLER_0_1007_279
*824 FILLER_0_1007_281
*825 FILLER_0_1007_293
*826 FILLER_0_1007_3
*827 FILLER_0_1007_305
*828 FILLER_0_1007_317
*829 FILLER_0_1007_329
*830 FILLER_0_1007_335
*831 FILLER_0_1007_337
*832 FILLER_0_1007_349
*833 FILLER_0_1007_361
*834 FILLER_0_1007_373
*835 FILLER_0_1007_385
*836 FILLER_0_1007_39
*837 FILLER_0_1007_391
*838 FILLER_0_1007_393
*839 FILLER_0_1007_405
*840 FILLER_0_1007_51
*841 FILLER_0_1007_55
*842 FILLER_0_1007_57
*843 FILLER_0_1007_69
*844 FILLER_0_1007_81
*845 FILLER_0_1007_93
*846 FILLER_0_1008_109
*847 FILLER_0_1008_121
*848 FILLER_0_1008_133
*849 FILLER_0_1008_139
*850 FILLER_0_1008_141
*851 FILLER_0_1008_15
*852 FILLER_0_1008_153
*853 FILLER_0_1008_165
*854 FILLER_0_1008_177
*855 FILLER_0_1008_189
*856 FILLER_0_1008_195
*857 FILLER_0_1008_197
*858 FILLER_0_1008_209
*859 FILLER_0_1008_221
*860 FILLER_0_1008_233
*861 FILLER_0_1008_245
*862 FILLER_0_1008_251
*863 FILLER_0_1008_253
*864 FILLER_0_1008_265
*865 FILLER_0_1008_27
*866 FILLER_0_1008_277
*867 FILLER_0_1008_289
*868 FILLER_0_1008_29
*869 FILLER_0_1008_3
*870 FILLER_0_1008_301
*871 FILLER_0_1008_307
*872 FILLER_0_1008_309
*873 FILLER_0_1008_321
*874 FILLER_0_1008_333
*875 FILLER_0_1008_345
*876 FILLER_0_1008_357
*877 FILLER_0_1008_363
*878 FILLER_0_1008_365
*879 FILLER_0_1008_377
*880 FILLER_0_1008_389
*881 FILLER_0_1008_401
*882 FILLER_0_1008_41
*883 FILLER_0_1008_53
*884 FILLER_0_1008_65
*885 FILLER_0_1008_77
*886 FILLER_0_1008_83
*887 FILLER_0_1008_85
*888 FILLER_0_1008_97
*889 FILLER_0_1009_105
*890 FILLER_0_1009_111
*891 FILLER_0_1009_113
*892 FILLER_0_1009_125
*893 FILLER_0_1009_137
*894 FILLER_0_1009_149
*895 FILLER_0_1009_15
*896 FILLER_0_1009_161
*897 FILLER_0_1009_167
*898 FILLER_0_1009_169
*899 FILLER_0_1009_181
*900 FILLER_0_1009_193
*901 FILLER_0_1009_205
*902 FILLER_0_1009_217
*903 FILLER_0_1009_223
*904 FILLER_0_1009_225
*905 FILLER_0_1009_237
*906 FILLER_0_1009_249
*907 FILLER_0_1009_261
*908 FILLER_0_1009_27
*909 FILLER_0_1009_273
*910 FILLER_0_1009_279
*911 FILLER_0_1009_281
*912 FILLER_0_1009_293
*913 FILLER_0_1009_3
*914 FILLER_0_1009_305
*915 FILLER_0_1009_317
*916 FILLER_0_1009_329
*917 FILLER_0_1009_335
*918 FILLER_0_1009_337
*919 FILLER_0_1009_349
*920 FILLER_0_1009_361
*921 FILLER_0_1009_373
*922 FILLER_0_1009_385
*923 FILLER_0_1009_39
*924 FILLER_0_1009_391
*925 FILLER_0_1009_393
*926 FILLER_0_1009_405
*927 FILLER_0_1009_51
*928 FILLER_0_1009_55
*929 FILLER_0_1009_57
*930 FILLER_0_1009_69
*931 FILLER_0_1009_81
*932 FILLER_0_1009_93
*933 FILLER_0_100_109
*934 FILLER_0_100_121
*935 FILLER_0_100_133
*936 FILLER_0_100_139
*937 FILLER_0_100_141
*938 FILLER_0_100_15
*939 FILLER_0_100_153
*940 FILLER_0_100_165
*941 FILLER_0_100_177
*942 FILLER_0_100_189
*943 FILLER_0_100_195
*944 FILLER_0_100_197
*945 FILLER_0_100_209
*946 FILLER_0_100_221
*947 FILLER_0_100_233
*948 FILLER_0_100_245
*949 FILLER_0_100_251
*950 FILLER_0_100_253
*951 FILLER_0_100_265
*952 FILLER_0_100_27
*953 FILLER_0_100_277
*954 FILLER_0_100_289
*955 FILLER_0_100_29
*956 FILLER_0_100_3
*957 FILLER_0_100_301
*958 FILLER_0_100_307
*959 FILLER_0_100_309
*960 FILLER_0_100_321
*961 FILLER_0_100_333
*962 FILLER_0_100_345
*963 FILLER_0_100_357
*964 FILLER_0_100_363
*965 FILLER_0_100_365
*966 FILLER_0_100_377
*967 FILLER_0_100_389
*968 FILLER_0_100_401
*969 FILLER_0_100_41
*970 FILLER_0_100_53
*971 FILLER_0_100_65
*972 FILLER_0_100_77
*973 FILLER_0_100_83
*974 FILLER_0_100_85
*975 FILLER_0_100_97
*976 FILLER_0_1010_109
*977 FILLER_0_1010_121
*978 FILLER_0_1010_133
*979 FILLER_0_1010_139
*980 FILLER_0_1010_141
*981 FILLER_0_1010_15
*982 FILLER_0_1010_153
*983 FILLER_0_1010_165
*984 FILLER_0_1010_177
*985 FILLER_0_1010_189
*986 FILLER_0_1010_195
*987 FILLER_0_1010_197
*988 FILLER_0_1010_209
*989 FILLER_0_1010_221
*990 FILLER_0_1010_233
*991 FILLER_0_1010_245
*992 FILLER_0_1010_251
*993 FILLER_0_1010_253
*994 FILLER_0_1010_265
*995 FILLER_0_1010_27
*996 FILLER_0_1010_277
*997 FILLER_0_1010_289
*998 FILLER_0_1010_29
*999 FILLER_0_1010_3
*1000 FILLER_0_1010_301
*1001 FILLER_0_1010_307
*1002 FILLER_0_1010_309
*1003 FILLER_0_1010_321
*1004 FILLER_0_1010_333
*1005 FILLER_0_1010_345
*1006 FILLER_0_1010_357
*1007 FILLER_0_1010_363
*1008 FILLER_0_1010_365
*1009 FILLER_0_1010_377
*1010 FILLER_0_1010_389
*1011 FILLER_0_1010_401
*1012 FILLER_0_1010_41
*1013 FILLER_0_1010_53
*1014 FILLER_0_1010_65
*1015 FILLER_0_1010_77
*1016 FILLER_0_1010_83
*1017 FILLER_0_1010_85
*1018 FILLER_0_1010_97
*1019 FILLER_0_1011_105
*1020 FILLER_0_1011_111
*1021 FILLER_0_1011_113
*1022 FILLER_0_1011_125
*1023 FILLER_0_1011_137
*1024 FILLER_0_1011_149
*1025 FILLER_0_1011_15
*1026 FILLER_0_1011_161
*1027 FILLER_0_1011_167
*1028 FILLER_0_1011_169
*1029 FILLER_0_1011_181
*1030 FILLER_0_1011_193
*1031 FILLER_0_1011_205
*1032 FILLER_0_1011_217
*1033 FILLER_0_1011_223
*1034 FILLER_0_1011_225
*1035 FILLER_0_1011_237
*1036 FILLER_0_1011_249
*1037 FILLER_0_1011_261
*1038 FILLER_0_1011_27
*1039 FILLER_0_1011_273
*1040 FILLER_0_1011_279
*1041 FILLER_0_1011_281
*1042 FILLER_0_1011_293
*1043 FILLER_0_1011_3
*1044 FILLER_0_1011_305
*1045 FILLER_0_1011_317
*1046 FILLER_0_1011_329
*1047 FILLER_0_1011_335
*1048 FILLER_0_1011_337
*1049 FILLER_0_1011_349
*1050 FILLER_0_1011_361
*1051 FILLER_0_1011_373
*1052 FILLER_0_1011_385
*1053 FILLER_0_1011_39
*1054 FILLER_0_1011_391
*1055 FILLER_0_1011_393
*1056 FILLER_0_1011_405
*1057 FILLER_0_1011_51
*1058 FILLER_0_1011_55
*1059 FILLER_0_1011_57
*1060 FILLER_0_1011_69
*1061 FILLER_0_1011_81
*1062 FILLER_0_1011_93
*1063 FILLER_0_1012_109
*1064 FILLER_0_1012_121
*1065 FILLER_0_1012_133
*1066 FILLER_0_1012_139
*1067 FILLER_0_1012_141
*1068 FILLER_0_1012_15
*1069 FILLER_0_1012_153
*1070 FILLER_0_1012_165
*1071 FILLER_0_1012_177
*1072 FILLER_0_1012_189
*1073 FILLER_0_1012_195
*1074 FILLER_0_1012_197
*1075 FILLER_0_1012_209
*1076 FILLER_0_1012_221
*1077 FILLER_0_1012_233
*1078 FILLER_0_1012_245
*1079 FILLER_0_1012_251
*1080 FILLER_0_1012_253
*1081 FILLER_0_1012_265
*1082 FILLER_0_1012_27
*1083 FILLER_0_1012_277
*1084 FILLER_0_1012_289
*1085 FILLER_0_1012_29
*1086 FILLER_0_1012_3
*1087 FILLER_0_1012_301
*1088 FILLER_0_1012_307
*1089 FILLER_0_1012_309
*1090 FILLER_0_1012_321
*1091 FILLER_0_1012_333
*1092 FILLER_0_1012_345
*1093 FILLER_0_1012_357
*1094 FILLER_0_1012_363
*1095 FILLER_0_1012_365
*1096 FILLER_0_1012_377
*1097 FILLER_0_1012_389
*1098 FILLER_0_1012_401
*1099 FILLER_0_1012_41
*1100 FILLER_0_1012_53
*1101 FILLER_0_1012_65
*1102 FILLER_0_1012_77
*1103 FILLER_0_1012_83
*1104 FILLER_0_1012_85
*1105 FILLER_0_1012_97
*1106 FILLER_0_1013_105
*1107 FILLER_0_1013_111
*1108 FILLER_0_1013_113
*1109 FILLER_0_1013_125
*1110 FILLER_0_1013_137
*1111 FILLER_0_1013_149
*1112 FILLER_0_1013_15
*1113 FILLER_0_1013_161
*1114 FILLER_0_1013_167
*1115 FILLER_0_1013_169
*1116 FILLER_0_1013_181
*1117 FILLER_0_1013_193
*1118 FILLER_0_1013_205
*1119 FILLER_0_1013_217
*1120 FILLER_0_1013_223
*1121 FILLER_0_1013_225
*1122 FILLER_0_1013_237
*1123 FILLER_0_1013_249
*1124 FILLER_0_1013_261
*1125 FILLER_0_1013_27
*1126 FILLER_0_1013_273
*1127 FILLER_0_1013_279
*1128 FILLER_0_1013_281
*1129 FILLER_0_1013_293
*1130 FILLER_0_1013_305
*1131 FILLER_0_1013_317
*1132 FILLER_0_1013_329
*1133 FILLER_0_1013_335
*1134 FILLER_0_1013_337
*1135 FILLER_0_1013_349
*1136 FILLER_0_1013_361
*1137 FILLER_0_1013_373
*1138 FILLER_0_1013_385
*1139 FILLER_0_1013_39
*1140 FILLER_0_1013_391
*1141 FILLER_0_1013_393
*1142 FILLER_0_1013_405
*1143 FILLER_0_1013_51
*1144 FILLER_0_1013_55
*1145 FILLER_0_1013_57
*1146 FILLER_0_1013_69
*1147 FILLER_0_1013_81
*1148 FILLER_0_1013_93
*1149 FILLER_0_1014_109
*1150 FILLER_0_1014_121
*1151 FILLER_0_1014_133
*1152 FILLER_0_1014_139
*1153 FILLER_0_1014_141
*1154 FILLER_0_1014_15
*1155 FILLER_0_1014_153
*1156 FILLER_0_1014_165
*1157 FILLER_0_1014_177
*1158 FILLER_0_1014_189
*1159 FILLER_0_1014_195
*1160 FILLER_0_1014_197
*1161 FILLER_0_1014_209
*1162 FILLER_0_1014_221
*1163 FILLER_0_1014_233
*1164 FILLER_0_1014_245
*1165 FILLER_0_1014_251
*1166 FILLER_0_1014_253
*1167 FILLER_0_1014_265
*1168 FILLER_0_1014_27
*1169 FILLER_0_1014_277
*1170 FILLER_0_1014_289
*1171 FILLER_0_1014_29
*1172 FILLER_0_1014_3
*1173 FILLER_0_1014_301
*1174 FILLER_0_1014_307
*1175 FILLER_0_1014_309
*1176 FILLER_0_1014_321
*1177 FILLER_0_1014_333
*1178 FILLER_0_1014_345
*1179 FILLER_0_1014_357
*1180 FILLER_0_1014_363
*1181 FILLER_0_1014_365
*1182 FILLER_0_1014_377
*1183 FILLER_0_1014_389
*1184 FILLER_0_1014_401
*1185 FILLER_0_1014_41
*1186 FILLER_0_1014_53
*1187 FILLER_0_1014_65
*1188 FILLER_0_1014_77
*1189 FILLER_0_1014_83
*1190 FILLER_0_1014_85
*1191 FILLER_0_1014_97
*1192 FILLER_0_1015_105
*1193 FILLER_0_1015_111
*1194 FILLER_0_1015_113
*1195 FILLER_0_1015_125
*1196 FILLER_0_1015_137
*1197 FILLER_0_1015_149
*1198 FILLER_0_1015_15
*1199 FILLER_0_1015_161
*1200 FILLER_0_1015_167
*1201 FILLER_0_1015_169
*1202 FILLER_0_1015_181
*1203 FILLER_0_1015_193
*1204 FILLER_0_1015_205
*1205 FILLER_0_1015_217
*1206 FILLER_0_1015_223
*1207 FILLER_0_1015_225
*1208 FILLER_0_1015_237
*1209 FILLER_0_1015_249
*1210 FILLER_0_1015_261
*1211 FILLER_0_1015_27
*1212 FILLER_0_1015_273
*1213 FILLER_0_1015_279
*1214 FILLER_0_1015_281
*1215 FILLER_0_1015_293
*1216 FILLER_0_1015_3
*1217 FILLER_0_1015_305
*1218 FILLER_0_1015_317
*1219 FILLER_0_1015_329
*1220 FILLER_0_1015_335
*1221 FILLER_0_1015_337
*1222 FILLER_0_1015_349
*1223 FILLER_0_1015_361
*1224 FILLER_0_1015_373
*1225 FILLER_0_1015_385
*1226 FILLER_0_1015_39
*1227 FILLER_0_1015_391
*1228 FILLER_0_1015_393
*1229 FILLER_0_1015_405
*1230 FILLER_0_1015_51
*1231 FILLER_0_1015_55
*1232 FILLER_0_1015_57
*1233 FILLER_0_1015_69
*1234 FILLER_0_1015_81
*1235 FILLER_0_1015_93
*1236 FILLER_0_1016_109
*1237 FILLER_0_1016_121
*1238 FILLER_0_1016_133
*1239 FILLER_0_1016_139
*1240 FILLER_0_1016_141
*1241 FILLER_0_1016_15
*1242 FILLER_0_1016_153
*1243 FILLER_0_1016_165
*1244 FILLER_0_1016_177
*1245 FILLER_0_1016_189
*1246 FILLER_0_1016_195
*1247 FILLER_0_1016_197
*1248 FILLER_0_1016_209
*1249 FILLER_0_1016_221
*1250 FILLER_0_1016_233
*1251 FILLER_0_1016_245
*1252 FILLER_0_1016_251
*1253 FILLER_0_1016_253
*1254 FILLER_0_1016_265
*1255 FILLER_0_1016_27
*1256 FILLER_0_1016_277
*1257 FILLER_0_1016_289
*1258 FILLER_0_1016_29
*1259 FILLER_0_1016_3
*1260 FILLER_0_1016_301
*1261 FILLER_0_1016_307
*1262 FILLER_0_1016_309
*1263 FILLER_0_1016_321
*1264 FILLER_0_1016_333
*1265 FILLER_0_1016_345
*1266 FILLER_0_1016_357
*1267 FILLER_0_1016_363
*1268 FILLER_0_1016_365
*1269 FILLER_0_1016_377
*1270 FILLER_0_1016_389
*1271 FILLER_0_1016_401
*1272 FILLER_0_1016_41
*1273 FILLER_0_1016_53
*1274 FILLER_0_1016_65
*1275 FILLER_0_1016_77
*1276 FILLER_0_1016_83
*1277 FILLER_0_1016_85
*1278 FILLER_0_1016_97
*1279 FILLER_0_1017_105
*1280 FILLER_0_1017_111
*1281 FILLER_0_1017_113
*1282 FILLER_0_1017_125
*1283 FILLER_0_1017_137
*1284 FILLER_0_1017_149
*1285 FILLER_0_1017_15
*1286 FILLER_0_1017_161
*1287 FILLER_0_1017_167
*1288 FILLER_0_1017_169
*1289 FILLER_0_1017_181
*1290 FILLER_0_1017_193
*1291 FILLER_0_1017_205
*1292 FILLER_0_1017_217
*1293 FILLER_0_1017_223
*1294 FILLER_0_1017_225
*1295 FILLER_0_1017_237
*1296 FILLER_0_1017_249
*1297 FILLER_0_1017_261
*1298 FILLER_0_1017_27
*1299 FILLER_0_1017_273
*1300 FILLER_0_1017_279
*1301 FILLER_0_1017_281
*1302 FILLER_0_1017_293
*1303 FILLER_0_1017_3
*1304 FILLER_0_1017_305
*1305 FILLER_0_1017_317
*1306 FILLER_0_1017_329
*1307 FILLER_0_1017_335
*1308 FILLER_0_1017_337
*1309 FILLER_0_1017_349
*1310 FILLER_0_1017_361
*1311 FILLER_0_1017_373
*1312 FILLER_0_1017_385
*1313 FILLER_0_1017_39
*1314 FILLER_0_1017_391
*1315 FILLER_0_1017_393
*1316 FILLER_0_1017_405
*1317 FILLER_0_1017_51
*1318 FILLER_0_1017_55
*1319 FILLER_0_1017_57
*1320 FILLER_0_1017_69
*1321 FILLER_0_1017_81
*1322 FILLER_0_1017_93
*1323 FILLER_0_1018_109
*1324 FILLER_0_1018_121
*1325 FILLER_0_1018_133
*1326 FILLER_0_1018_139
*1327 FILLER_0_1018_141
*1328 FILLER_0_1018_15
*1329 FILLER_0_1018_153
*1330 FILLER_0_1018_165
*1331 FILLER_0_1018_177
*1332 FILLER_0_1018_189
*1333 FILLER_0_1018_195
*1334 FILLER_0_1018_197
*1335 FILLER_0_1018_209
*1336 FILLER_0_1018_221
*1337 FILLER_0_1018_233
*1338 FILLER_0_1018_245
*1339 FILLER_0_1018_251
*1340 FILLER_0_1018_253
*1341 FILLER_0_1018_265
*1342 FILLER_0_1018_27
*1343 FILLER_0_1018_277
*1344 FILLER_0_1018_289
*1345 FILLER_0_1018_29
*1346 FILLER_0_1018_3
*1347 FILLER_0_1018_301
*1348 FILLER_0_1018_307
*1349 FILLER_0_1018_309
*1350 FILLER_0_1018_321
*1351 FILLER_0_1018_333
*1352 FILLER_0_1018_345
*1353 FILLER_0_1018_357
*1354 FILLER_0_1018_363
*1355 FILLER_0_1018_365
*1356 FILLER_0_1018_377
*1357 FILLER_0_1018_389
*1358 FILLER_0_1018_401
*1359 FILLER_0_1018_41
*1360 FILLER_0_1018_53
*1361 FILLER_0_1018_65
*1362 FILLER_0_1018_77
*1363 FILLER_0_1018_83
*1364 FILLER_0_1018_85
*1365 FILLER_0_1018_97
*1366 FILLER_0_1019_105
*1367 FILLER_0_1019_111
*1368 FILLER_0_1019_113
*1369 FILLER_0_1019_125
*1370 FILLER_0_1019_137
*1371 FILLER_0_1019_149
*1372 FILLER_0_1019_15
*1373 FILLER_0_1019_161
*1374 FILLER_0_1019_167
*1375 FILLER_0_1019_169
*1376 FILLER_0_1019_181
*1377 FILLER_0_1019_193
*1378 FILLER_0_1019_205
*1379 FILLER_0_1019_217
*1380 FILLER_0_1019_223
*1381 FILLER_0_1019_225
*1382 FILLER_0_1019_237
*1383 FILLER_0_1019_249
*1384 FILLER_0_1019_261
*1385 FILLER_0_1019_27
*1386 FILLER_0_1019_273
*1387 FILLER_0_1019_279
*1388 FILLER_0_1019_281
*1389 FILLER_0_1019_293
*1390 FILLER_0_1019_3
*1391 FILLER_0_1019_305
*1392 FILLER_0_1019_317
*1393 FILLER_0_1019_329
*1394 FILLER_0_1019_335
*1395 FILLER_0_1019_337
*1396 FILLER_0_1019_349
*1397 FILLER_0_1019_361
*1398 FILLER_0_1019_373
*1399 FILLER_0_1019_385
*1400 FILLER_0_1019_39
*1401 FILLER_0_1019_391
*1402 FILLER_0_1019_393
*1403 FILLER_0_1019_405
*1404 FILLER_0_1019_51
*1405 FILLER_0_1019_55
*1406 FILLER_0_1019_57
*1407 FILLER_0_1019_69
*1408 FILLER_0_1019_81
*1409 FILLER_0_1019_93
*1410 FILLER_0_101_105
*1411 FILLER_0_101_111
*1412 FILLER_0_101_113
*1413 FILLER_0_101_125
*1414 FILLER_0_101_137
*1415 FILLER_0_101_149
*1416 FILLER_0_101_15
*1417 FILLER_0_101_161
*1418 FILLER_0_101_167
*1419 FILLER_0_101_169
*1420 FILLER_0_101_181
*1421 FILLER_0_101_193
*1422 FILLER_0_101_205
*1423 FILLER_0_101_217
*1424 FILLER_0_101_223
*1425 FILLER_0_101_225
*1426 FILLER_0_101_237
*1427 FILLER_0_101_249
*1428 FILLER_0_101_261
*1429 FILLER_0_101_27