*SPEF "ieee 1481-1999"
*DESIGN "user_proj_pwm"
*DATE "11:11:11 Fri 11 11, 1111"
*VENDOR "OpenRCX"
*PROGRAM "Parallel Extraction"
*VERSION "1.0"
*DESIGN_FLOW "NAME_SCOPE LOCAL" "PIN_CAP NONE"
*DIVIDER /
*DELIMITER :
*BUS_DELIMITER []
*T_UNIT 1 NS
*C_UNIT 1 PF
*R_UNIT 1 OHM
*L_UNIT 1 HENRY

*NAME_MAP
*1 io_in[0]
*2 io_in[10]
*3 io_in[11]
*4 io_in[12]
*5 io_in[13]
*6 io_in[14]
*7 io_in[1]
*8 io_in[2]
*9 io_in[3]
*10 io_in[4]
*11 io_in[5]
*12 io_in[6]
*13 io_in[7]
*14 io_in[8]
*15 io_in[9]
*16 net19
*17 net29
*18 net30
*19 net31
*20 net32
*21 net33
*22 net20
*23 net21
*24 net22
*25 net23
*26 net24
*27 net25
*28 net26
*29 net27
*30 net28
*31 net34
*32 io_out[10]
*33 io_out[11]
*34 io_out[12]
*35 io_out[13]
*36 io_out[14]
*37 net35
*38 net36
*39 net37
*40 net38
*41 net39
*42 net40
*43 net41
*44 net42
*45 io_out[9]
*48 wb_clk_i
*49 wb_rst_i
*50 _000_
*51 _001_
*52 _002_
*53 _003_
*54 _004_
*55 _005_
*56 _006_
*57 _007_
*58 _008_
*59 _009_
*60 _010_
*61 _011_
*62 _012_
*63 _013_
*64 _014_
*65 _015_
*66 _016_
*67 _017_
*68 _018_
*69 _019_
*70 _020_
*71 _021_
*72 _022_
*73 _023_
*74 _024_
*75 _025_
*76 _026_
*77 _027_
*78 _028_
*79 _029_
*80 _030_
*81 _031_
*82 _032_
*83 _033_
*84 _034_
*85 _035_
*86 _036_
*87 _037_
*88 _038_
*89 _039_
*90 _040_
*91 _041_
*92 _042_
*93 _043_
*94 _044_
*95 _045_
*96 _046_
*97 _047_
*98 _048_
*99 _049_
*100 _050_
*101 _051_
*102 _052_
*103 _053_
*104 _054_
*105 _055_
*106 _056_
*107 _057_
*108 _058_
*109 _059_
*110 _060_
*111 _061_
*112 _062_
*113 _063_
*114 _064_
*115 _065_
*116 _066_
*117 _067_
*118 _068_
*119 _069_
*120 _070_
*121 _071_
*122 _072_
*123 _073_
*124 _074_
*125 _075_
*126 _076_
*127 _077_
*128 _078_
*129 _079_
*130 _080_
*131 _081_
*132 _082_
*133 _083_
*134 _084_
*135 _085_
*136 _086_
*137 _087_
*138 _088_
*139 _089_
*140 _090_
*141 _091_
*142 _092_
*143 _093_
*144 _094_
*145 _095_
*146 _096_
*147 _097_
*148 _098_
*149 _099_
*150 _100_
*151 _101_
*152 _102_
*153 _103_
*154 _104_
*155 _105_
*156 _106_
*157 _107_
*158 _108_
*159 _109_
*160 _110_
*161 _111_
*162 _112_
*163 _113_
*164 _114_
*165 _115_
*166 _116_
*167 _117_
*168 _118_
*169 _119_
*170 _120_
*171 _121_
*172 _122_
*173 _123_
*174 _124_
*175 _125_
*176 _126_
*177 _127_
*178 _128_
*179 _129_
*180 _130_
*181 _131_
*182 _132_
*183 _133_
*184 _134_
*185 clknet_0_wb_clk_i
*186 clknet_1_0_0_wb_clk_i
*187 clknet_1_1_0_wb_clk_i
*188 clknet_2_0__leaf_wb_clk_i
*189 clknet_2_1__leaf_wb_clk_i
*190 clknet_2_2__leaf_wb_clk_i
*191 clknet_2_3__leaf_wb_clk_i
*192 net1
*193 net10
*194 net100
*195 net101
*196 net102
*197 net103
*198 net104
*199 net105
*200 net106
*201 net107
*202 net108
*203 net109
*204 net11
*205 net110
*206 net111
*207 net112
*208 net113
*209 net114
*210 net12
*211 net13
*212 net14
*213 net15
*214 net16
*215 net17
*216 net18
*217 net2
*218 net3
*219 net4
*220 net43
*221 net44
*222 net45
*223 net46
*224 net47
*225 net48
*226 net49
*227 net5
*228 net50
*229 net51
*230 net52
*231 net53
*232 net54
*233 net55
*234 net56
*235 net57
*236 net58
*237 net59
*238 net6
*239 net60
*240 net61
*241 net62
*242 net63
*243 net64
*244 net65
*245 net66
*246 net67
*247 net68
*248 net69
*249 net7
*250 net70
*251 net71
*252 net72
*253 net73
*254 net74
*255 net75
*256 net76
*257 net77
*258 net78
*259 net79
*260 net8
*261 net80
*262 net81
*263 net82
*264 net83
*265 net84
*266 net85
*267 net86
*268 net87
*269 net88
*270 net89
*271 net9
*272 net90
*273 net91
*274 net92
*275 net93
*276 net94
*277 net95
*278 net96
*279 net97
*280 net98
*281 net99
*282 pwm\.PWM1\.c1\.cmp_out
*283 pwm\.PWM1\.c1\.count\[0\]
*284 pwm\.PWM1\.c1\.count\[1\]
*285 pwm\.PWM1\.c1\.count\[2\]
*286 pwm\.PWM1\.c1\.count\[3\]
*287 pwm\.PWM1\.c1\.count\[4\]
*288 pwm\.PWM1\.c1\.count\[5\]
*289 pwm\.PWM1\.c1\.count\[6\]
*290 pwm\.PWM1\.c1\.count\[7\]
*291 pwm\.PWM1\.d1\.q
*292 pwm\.PWM2\.c1\.cmp_out
*293 pwm\.PWM2\.c1\.count\[0\]
*294 pwm\.PWM2\.c1\.count\[1\]
*295 pwm\.PWM2\.c1\.count\[2\]
*296 pwm\.PWM2\.c1\.count\[3\]
*297 pwm\.PWM2\.c1\.count\[4\]
*298 pwm\.PWM2\.c1\.count\[5\]
*299 pwm\.PWM2\.c1\.count\[6\]
*300 pwm\.PWM2\.c1\.count\[7\]
*301 pwm\.PWM2\.d1\.q
*302 pwm\.PWM3\.c1\.cmp_out
*303 pwm\.PWM3\.c1\.count\[0\]
*304 pwm\.PWM3\.c1\.count\[1\]
*305 pwm\.PWM3\.c1\.count\[2\]
*306 pwm\.PWM3\.c1\.count\[3\]
*307 pwm\.PWM3\.c1\.count\[4\]
*308 pwm\.PWM3\.c1\.count\[5\]
*309 pwm\.PWM3\.c1\.count\[6\]
*310 pwm\.PWM3\.c1\.count\[7\]
*311 pwm\.PWM3\.d1\.q
*312 pwm\.dtg1\.dff1\.q
*313 pwm\.dtg1\.dff2\.q
*314 pwm\.dtg1\.dff3\.q
*315 pwm\.dtg1\.dff4\.q
*316 pwm\.dtg2\.dff1\.q
*317 pwm\.dtg2\.dff2\.q
*318 pwm\.dtg2\.dff3\.q
*319 pwm\.dtg2\.dff4\.q
*320 pwm\.dtg3\.dff1\.q
*321 pwm\.dtg3\.dff2\.q
*322 pwm\.dtg3\.dff3\.q
*323 pwm\.dtg3\.dff4\.q
*324 pwm\.latch1\.Q
*325 pwm\.latch2\.Q
*326 ANTENNA_1
*327 ANTENNA__135__A
*328 ANTENNA__137__A
*329 ANTENNA__150__A1
*330 ANTENNA__152__A
*331 ANTENNA__153__A
*332 ANTENNA__166__A
*333 ANTENNA__168__A1
*334 ANTENNA__170__A
*335 ANTENNA__183__A
*336 ANTENNA__185__A1
*337 ANTENNA__197__B
*338 ANTENNA__198__A2
*339 ANTENNA__199__A2
*340 ANTENNA__200__A2
*341 ANTENNA__200__B1
*342 ANTENNA__201__B1
*343 ANTENNA__203__A2
*344 ANTENNA__203__B1
*345 ANTENNA__204__B
*346 ANTENNA__205__B
*347 ANTENNA__207__A2
*348 ANTENNA__207__B1
*349 ANTENNA__208__A2
*350 ANTENNA__209__A2
*351 ANTENNA__213__A2
*352 ANTENNA__215__B
*353 ANTENNA__216__A2
*354 ANTENNA__216__B1
*355 ANTENNA__217__A2
*356 ANTENNA__218__A2
*357 ANTENNA__218__B1
*358 ANTENNA__219__A2
*359 ANTENNA__220__B
*360 ANTENNA__221__B1
*361 ANTENNA__223__A2
*362 ANTENNA__223__B1
*363 ANTENNA__224__A2
*364 ANTENNA__224__B1
*365 ANTENNA__227__A2
*366 ANTENNA__227__B1
*367 ANTENNA__228__A2
*368 ANTENNA__229__A2
*369 ANTENNA__229__B1
*370 ANTENNA__230__B1
*371 ANTENNA__232__A2
*372 ANTENNA__232__B1
*373 ANTENNA__233__A2
*374 ANTENNA__233__B1
*375 ANTENNA__235__B
*376 ANTENNA__236__A2
*377 ANTENNA__236__B1
*378 ANTENNA__238__A2
*379 ANTENNA__240__A2
*380 ANTENNA__243__A2
*381 ANTENNA__245__B
*382 ANTENNA__246__B
*383 ANTENNA__247__B
*384 ANTENNA__250__B
*385 ANTENNA__251__B
*386 ANTENNA__252__B
*387 ANTENNA__254__A
*388 ANTENNA__255__A
*389 ANTENNA__256__A
*390 ANTENNA__257__A
*391 ANTENNA__258__A
*392 ANTENNA__259__A
*393 ANTENNA__260__A
*394 ANTENNA__267__A
*395 ANTENNA__269__A
*396 ANTENNA__275__A
*397 ANTENNA__276__A
*398 ANTENNA__277__A
*399 ANTENNA__278__A
*400 ANTENNA__279__CLK
*401 ANTENNA__280__CLK
*402 ANTENNA__281__CLK
*403 ANTENNA__282__CLK
*404 ANTENNA__283__CLK
*405 ANTENNA__284__CLK
*406 ANTENNA__285__CLK
*407 ANTENNA__286__CLK
*408 ANTENNA__289__CLK
*409 ANTENNA__290__CLK
*410 ANTENNA__291__CLK
*411 ANTENNA__292__CLK
*412 ANTENNA__293__CLK
*413 ANTENNA__294__CLK
*414 ANTENNA__295__CLK
*415 ANTENNA__296__CLK
*416 ANTENNA__297__CLK
*417 ANTENNA__298__CLK
*418 ANTENNA__299__CLK
*419 ANTENNA__300__CLK
*420 ANTENNA__301__CLK
*421 ANTENNA__302__CLK
*422 ANTENNA__303__CLK
*423 ANTENNA__304__CLK
*424 ANTENNA__305__CLK
*425 ANTENNA__306__CLK
*426 ANTENNA__307__CLK
*427 ANTENNA__307__D
*428 ANTENNA__308__CLK
*429 ANTENNA__309__CLK
*430 ANTENNA__310__CLK
*431 ANTENNA__311__CLK
*432 ANTENNA__312__CLK
*433 ANTENNA__313__CLK
*434 ANTENNA__314__CLK
*435 ANTENNA__315__CLK
*436 ANTENNA__316__CLK
*437 ANTENNA__317__CLK
*438 ANTENNA__317__D
*439 ANTENNA__318__CLK
*440 ANTENNA__318__D
*441 ANTENNA__319__CLK
*442 ANTENNA__319__D
*443 ANTENNA_clkbuf_1_0_0_wb_clk_i_A
*444 ANTENNA_clkbuf_1_1_0_wb_clk_i_A
*445 ANTENNA_fanout17_A
*446 ANTENNA_fanout18_A
*447 ANTENNA_hold54_A
*448 ANTENNA_hold55_A
*449 ANTENNA_hold65_A
*450 ANTENNA_hold72_A
*451 ANTENNA_output11_A
*452 ANTENNA_output13_A
*453 ANTENNA_output15_A
*454 FILLER_0_0_109
*455 FILLER_0_0_113
*456 FILLER_0_0_125
*457 FILLER_0_0_137
*458 FILLER_0_0_141
*459 FILLER_0_0_15
*460 FILLER_0_0_153
*461 FILLER_0_0_165
*462 FILLER_0_0_169
*463 FILLER_0_0_181
*464 FILLER_0_0_193
*465 FILLER_0_0_197
*466 FILLER_0_0_209
*467 FILLER_0_0_221
*468 FILLER_0_0_225
*469 FILLER_0_0_237
*470 FILLER_0_0_249
*471 FILLER_0_0_253
*472 FILLER_0_0_265
*473 FILLER_0_0_27
*474 FILLER_0_0_277
*475 FILLER_0_0_281
*476 FILLER_0_0_29
*477 FILLER_0_0_293
*478 FILLER_0_0_3
*479 FILLER_0_0_305
*480 FILLER_0_0_309
*481 FILLER_0_0_321
*482 FILLER_0_0_333
*483 FILLER_0_0_337
*484 FILLER_0_0_349
*485 FILLER_0_0_361
*486 FILLER_0_0_365
*487 FILLER_0_0_377
*488 FILLER_0_0_389
*489 FILLER_0_0_393
*490 FILLER_0_0_405
*491 FILLER_0_0_41
*492 FILLER_0_0_417
*493 FILLER_0_0_421
*494 FILLER_0_0_433
*495 FILLER_0_0_445
*496 FILLER_0_0_449
*497 FILLER_0_0_461
*498 FILLER_0_0_473
*499 FILLER_0_0_493
*500 FILLER_0_0_501
*501 FILLER_0_0_505
*502 FILLER_0_0_517
*503 FILLER_0_0_529
*504 FILLER_0_0_53
*505 FILLER_0_0_533
*506 FILLER_0_0_545
*507 FILLER_0_0_557
*508 FILLER_0_0_561
*509 FILLER_0_0_57
*510 FILLER_0_0_573
*511 FILLER_0_0_585
*512 FILLER_0_0_589
*513 FILLER_0_0_601
*514 FILLER_0_0_613
*515 FILLER_0_0_617
*516 FILLER_0_0_69
*517 FILLER_0_0_81
*518 FILLER_0_0_85
*519 FILLER_0_0_97
*520 FILLER_0_1000_109
*521 FILLER_0_1000_121
*522 FILLER_0_1000_133
*523 FILLER_0_1000_139
*524 FILLER_0_1000_141
*525 FILLER_0_1000_15
*526 FILLER_0_1000_153
*527 FILLER_0_1000_165
*528 FILLER_0_1000_177
*529 FILLER_0_1000_189
*530 FILLER_0_1000_195
*531 FILLER_0_1000_197
*532 FILLER_0_1000_209
*533 FILLER_0_1000_221
*534 FILLER_0_1000_233
*535 FILLER_0_1000_245
*536 FILLER_0_1000_251
*537 FILLER_0_1000_253
*538 FILLER_0_1000_265
*539 FILLER_0_1000_27
*540 FILLER_0_1000_277
*541 FILLER_0_1000_289
*542 FILLER_0_1000_29
*543 FILLER_0_1000_3
*544 FILLER_0_1000_301
*545 FILLER_0_1000_307
*546 FILLER_0_1000_309
*547 FILLER_0_1000_321
*548 FILLER_0_1000_333
*549 FILLER_0_1000_345
*550 FILLER_0_1000_357
*551 FILLER_0_1000_363
*552 FILLER_0_1000_365
*553 FILLER_0_1000_377
*554 FILLER_0_1000_389
*555 FILLER_0_1000_401
*556 FILLER_0_1000_41
*557 FILLER_0_1000_413
*558 FILLER_0_1000_419
*559 FILLER_0_1000_421
*560 FILLER_0_1000_433
*561 FILLER_0_1000_445
*562 FILLER_0_1000_457
*563 FILLER_0_1000_469
*564 FILLER_0_1000_475
*565 FILLER_0_1000_477
*566 FILLER_0_1000_489
*567 FILLER_0_1000_501
*568 FILLER_0_1000_513
*569 FILLER_0_1000_525
*570 FILLER_0_1000_53
*571 FILLER_0_1000_531
*572 FILLER_0_1000_533
*573 FILLER_0_1000_545
*574 FILLER_0_1000_557
*575 FILLER_0_1000_569
*576 FILLER_0_1000_581
*577 FILLER_0_1000_587
*578 FILLER_0_1000_589
*579 FILLER_0_1000_601
*580 FILLER_0_1000_613
*581 FILLER_0_1000_65
*582 FILLER_0_1000_77
*583 FILLER_0_1000_83
*584 FILLER_0_1000_85
*585 FILLER_0_1000_97
*586 FILLER_0_1001_105
*587 FILLER_0_1001_111
*588 FILLER_0_1001_113
*589 FILLER_0_1001_125
*590 FILLER_0_1001_137
*591 FILLER_0_1001_149
*592 FILLER_0_1001_15
*593 FILLER_0_1001_161
*594 FILLER_0_1001_167
*595 FILLER_0_1001_169
*596 FILLER_0_1001_181
*597 FILLER_0_1001_193
*598 FILLER_0_1001_205
*599 FILLER_0_1001_217
*600 FILLER_0_1001_223
*601 FILLER_0_1001_225
*602 FILLER_0_1001_237
*603 FILLER_0_1001_249
*604 FILLER_0_1001_261
*605 FILLER_0_1001_27
*606 FILLER_0_1001_273
*607 FILLER_0_1001_279
*608 FILLER_0_1001_281
*609 FILLER_0_1001_293
*610 FILLER_0_1001_3
*611 FILLER_0_1001_305
*612 FILLER_0_1001_317
*613 FILLER_0_1001_329
*614 FILLER_0_1001_335
*615 FILLER_0_1001_337
*616 FILLER_0_1001_349
*617 FILLER_0_1001_361
*618 FILLER_0_1001_373
*619 FILLER_0_1001_385
*620 FILLER_0_1001_39
*621 FILLER_0_1001_391
*622 FILLER_0_1001_393
*623 FILLER_0_1001_405
*624 FILLER_0_1001_417
*625 FILLER_0_1001_429
*626 FILLER_0_1001_441
*627 FILLER_0_1001_447
*628 FILLER_0_1001_449
*629 FILLER_0_1001_461
*630 FILLER_0_1001_473
*631 FILLER_0_1001_485
*632 FILLER_0_1001_497
*633 FILLER_0_1001_503
*634 FILLER_0_1001_505
*635 FILLER_0_1001_51
*636 FILLER_0_1001_517
*637 FILLER_0_1001_529
*638 FILLER_0_1001_541
*639 FILLER_0_1001_55
*640 FILLER_0_1001_553
*641 FILLER_0_1001_559
*642 FILLER_0_1001_561
*643 FILLER_0_1001_57
*644 FILLER_0_1001_573
*645 FILLER_0_1001_585
*646 FILLER_0_1001_597
*647 FILLER_0_1001_609
*648 FILLER_0_1001_615
*649 FILLER_0_1001_617
*650 FILLER_0_1001_69
*651 FILLER_0_1001_81
*652 FILLER_0_1001_93
*653 FILLER_0_1002_109
*654 FILLER_0_1002_121
*655 FILLER_0_1002_133
*656 FILLER_0_1002_139
*657 FILLER_0_1002_141
*658 FILLER_0_1002_15
*659 FILLER_0_1002_153
*660 FILLER_0_1002_165
*661 FILLER_0_1002_177
*662 FILLER_0_1002_189
*663 FILLER_0_1002_195
*664 FILLER_0_1002_197
*665 FILLER_0_1002_209
*666 FILLER_0_1002_221
*667 FILLER_0_1002_233
*668 FILLER_0_1002_245
*669 FILLER_0_1002_251
*670 FILLER_0_1002_253
*671 FILLER_0_1002_265
*672 FILLER_0_1002_27
*673 FILLER_0_1002_277
*674 FILLER_0_1002_289
*675 FILLER_0_1002_29
*676 FILLER_0_1002_3
*677 FILLER_0_1002_301
*678 FILLER_0_1002_307
*679 FILLER_0_1002_309
*680 FILLER_0_1002_321
*681 FILLER_0_1002_333
*682 FILLER_0_1002_345
*683 FILLER_0_1002_357
*684 FILLER_0_1002_363
*685 FILLER_0_1002_365
*686 FILLER_0_1002_377
*687 FILLER_0_1002_389
*688 FILLER_0_1002_401
*689 FILLER_0_1002_41
*690 FILLER_0_1002_413
*691 FILLER_0_1002_419
*692 FILLER_0_1002_421
*693 FILLER_0_1002_433
*694 FILLER_0_1002_445
*695 FILLER_0_1002_457
*696 FILLER_0_1002_469
*697 FILLER_0_1002_475
*698 FILLER_0_1002_477
*699 FILLER_0_1002_489
*700 FILLER_0_1002_501
*701 FILLER_0_1002_513
*702 FILLER_0_1002_525
*703 FILLER_0_1002_53
*704 FILLER_0_1002_531
*705 FILLER_0_1002_533
*706 FILLER_0_1002_545
*707 FILLER_0_1002_557
*708 FILLER_0_1002_569
*709 FILLER_0_1002_581
*710 FILLER_0_1002_587
*711 FILLER_0_1002_589
*712 FILLER_0_1002_601
*713 FILLER_0_1002_613
*714 FILLER_0_1002_65
*715 FILLER_0_1002_77
*716 FILLER_0_1002_83
*717 FILLER_0_1002_85
*718 FILLER_0_1002_97
*719 FILLER_0_1003_105
*720 FILLER_0_1003_111
*721 FILLER_0_1003_113
*722 FILLER_0_1003_125
*723 FILLER_0_1003_137
*724 FILLER_0_1003_149
*725 FILLER_0_1003_15
*726 FILLER_0_1003_161
*727 FILLER_0_1003_167
*728 FILLER_0_1003_169
*729 FILLER_0_1003_181
*730 FILLER_0_1003_193
*731 FILLER_0_1003_205
*732 FILLER_0_1003_217
*733 FILLER_0_1003_223
*734 FILLER_0_1003_225
*735 FILLER_0_1003_237
*736 FILLER_0_1003_249
*737 FILLER_0_1003_261
*738 FILLER_0_1003_27
*739 FILLER_0_1003_273
*740 FILLER_0_1003_279
*741 FILLER_0_1003_281
*742 FILLER_0_1003_293
*743 FILLER_0_1003_3
*744 FILLER_0_1003_305
*745 FILLER_0_1003_317
*746 FILLER_0_1003_329
*747 FILLER_0_1003_335
*748 FILLER_0_1003_337
*749 FILLER_0_1003_349
*750 FILLER_0_1003_361
*751 FILLER_0_1003_373
*752 FILLER_0_1003_385
*753 FILLER_0_1003_39
*754 FILLER_0_1003_391
*755 FILLER_0_1003_393
*756 FILLER_0_1003_405
*757 FILLER_0_1003_417
*758 FILLER_0_1003_429
*759 FILLER_0_1003_441
*760 FILLER_0_1003_447
*761 FILLER_0_1003_449
*762 FILLER_0_1003_461
*763 FILLER_0_1003_473
*764 FILLER_0_1003_485
*765 FILLER_0_1003_497
*766 FILLER_0_1003_503
*767 FILLER_0_1003_505
*768 FILLER_0_1003_51
*769 FILLER_0_1003_517
*770 FILLER_0_1003_529
*771 FILLER_0_1003_541
*772 FILLER_0_1003_55
*773 FILLER_0_1003_553
*774 FILLER_0_1003_559
*775 FILLER_0_1003_561
*776 FILLER_0_1003_57
*777 FILLER_0_1003_573
*778 FILLER_0_1003_585
*779 FILLER_0_1003_597
*780 FILLER_0_1003_609
*781 FILLER_0_1003_615
*782 FILLER_0_1003_617
*783 FILLER_0_1003_69
*784 FILLER_0_1003_81
*785 FILLER_0_1003_93
*786 FILLER_0_1004_109
*787 FILLER_0_1004_121
*788 FILLER_0_1004_133
*789 FILLER_0_1004_139
*790 FILLER_0_1004_141
*791 FILLER_0_1004_15
*792 FILLER_0_1004_153
*793 FILLER_0_1004_165
*794 FILLER_0_1004_177
*795 FILLER_0_1004_189
*796 FILLER_0_1004_195
*797 FILLER_0_1004_197
*798 FILLER_0_1004_209
*799 FILLER_0_1004_221
*800 FILLER_0_1004_233
*801 FILLER_0_1004_245
*802 FILLER_0_1004_251
*803 FILLER_0_1004_253
*804 FILLER_0_1004_265
*805 FILLER_0_1004_27
*806 FILLER_0_1004_277
*807 FILLER_0_1004_289
*808 FILLER_0_1004_29
*809 FILLER_0_1004_3
*810 FILLER_0_1004_301
*811 FILLER_0_1004_307
*812 FILLER_0_1004_309
*813 FILLER_0_1004_321
*814 FILLER_0_1004_333
*815 FILLER_0_1004_345
*816 FILLER_0_1004_357
*817 FILLER_0_1004_363
*818 FILLER_0_1004_365
*819 FILLER_0_1004_377
*820 FILLER_0_1004_389
*821 FILLER_0_1004_401
*822 FILLER_0_1004_41
*823 FILLER_0_1004_413
*824 FILLER_0_1004_419
*825 FILLER_0_1004_421
*826 FILLER_0_1004_433
*827 FILLER_0_1004_445
*828 FILLER_0_1004_457
*829 FILLER_0_1004_469
*830 FILLER_0_1004_475
*831 FILLER_0_1004_477
*832 FILLER_0_1004_489
*833 FILLER_0_1004_501
*834 FILLER_0_1004_513
*835 FILLER_0_1004_525
*836 FILLER_0_1004_53
*837 FILLER_0_1004_531
*838 FILLER_0_1004_533
*839 FILLER_0_1004_545
*840 FILLER_0_1004_557
*841 FILLER_0_1004_569
*842 FILLER_0_1004_581
*843 FILLER_0_1004_587
*844 FILLER_0_1004_589
*845 FILLER_0_1004_601
*846 FILLER_0_1004_613
*847 FILLER_0_1004_65
*848 FILLER_0_1004_77
*849 FILLER_0_1004_83
*850 FILLER_0_1004_85
*851 FILLER_0_1004_97
*852 FILLER_0_1005_105
*853 FILLER_0_1005_111
*854 FILLER_0_1005_113
*855 FILLER_0_1005_125
*856 FILLER_0_1005_137
*857 FILLER_0_1005_149
*858 FILLER_0_1005_15
*859 FILLER_0_1005_161
*860 FILLER_0_1005_167
*861 FILLER_0_1005_169
*862 FILLER_0_1005_181
*863 FILLER_0_1005_193
*864 FILLER_0_1005_205
*865 FILLER_0_1005_217
*866 FILLER_0_1005_223
*867 FILLER_0_1005_225
*868 FILLER_0_1005_237
*869 FILLER_0_1005_249
*870 FILLER_0_1005_261
*871 FILLER_0_1005_27
*872 FILLER_0_1005_273
*873 FILLER_0_1005_279
*874 FILLER_0_1005_281
*875 FILLER_0_1005_293
*876 FILLER_0_1005_3
*877 FILLER_0_1005_305
*878 FILLER_0_1005_317
*879 FILLER_0_1005_329
*880 FILLER_0_1005_335
*881 FILLER_0_1005_337
*882 FILLER_0_1005_349
*883 FILLER_0_1005_361
*884 FILLER_0_1005_373
*885 FILLER_0_1005_385
*886 FILLER_0_1005_39
*887 FILLER_0_1005_391
*888 FILLER_0_1005_393
*889 FILLER_0_1005_405
*890 FILLER_0_1005_417
*891 FILLER_0_1005_429
*892 FILLER_0_1005_441
*893 FILLER_0_1005_447
*894 FILLER_0_1005_449
*895 FILLER_0_1005_461
*896 FILLER_0_1005_473
*897 FILLER_0_1005_485
*898 FILLER_0_1005_497
*899 FILLER_0_1005_503
*900 FILLER_0_1005_505
*901 FILLER_0_1005_51
*902 FILLER_0_1005_517
*903 FILLER_0_1005_529
*904 FILLER_0_1005_541
*905 FILLER_0_1005_55
*906 FILLER_0_1005_553
*907 FILLER_0_1005_559
*908 FILLER_0_1005_561
*909 FILLER_0_1005_57
*910 FILLER_0_1005_573
*911 FILLER_0_1005_585
*912 FILLER_0_1005_597
*913 FILLER_0_1005_609
*914 FILLER_0_1005_615
*915 FILLER_0_1005_617
*916 FILLER_0_1005_69
*917 FILLER_0_1005_81
*918 FILLER_0_1005_93
*919 FILLER_0_1006_109
*920 FILLER_0_1006_121
*921 FILLER_0_1006_133
*922 FILLER_0_1006_139
*923 FILLER_0_1006_141
*924 FILLER_0_1006_15
*925 FILLER_0_1006_153
*926 FILLER_0_1006_165
*927 FILLER_0_1006_177
*928 FILLER_0_1006_189
*929 FILLER_0_1006_195
*930 FILLER_0_1006_197
*931 FILLER_0_1006_209
*932 FILLER_0_1006_221
*933 FILLER_0_1006_233
*934 FILLER_0_1006_245
*935 FILLER_0_1006_251
*936 FILLER_0_1006_253
*937 FILLER_0_1006_265
*938 FILLER_0_1006_27
*939 FILLER_0_1006_277
*940 FILLER_0_1006_289
*941 FILLER_0_1006_29
*942 FILLER_0_1006_3
*943 FILLER_0_1006_301
*944 FILLER_0_1006_307
*945 FILLER_0_1006_309
*946 FILLER_0_1006_321
*947 FILLER_0_1006_333
*948 FILLER_0_1006_345
*949 FILLER_0_1006_357
*950 FILLER_0_1006_363
*951 FILLER_0_1006_365
*952 FILLER_0_1006_377
*953 FILLER_0_1006_389
*954 FILLER_0_1006_401
*955 FILLER_0_1006_41
*956 FILLER_0_1006_413
*957 FILLER_0_1006_419
*958 FILLER_0_1006_421
*959 FILLER_0_1006_433
*960 FILLER_0_1006_445
*961 FILLER_0_1006_457
*962 FILLER_0_1006_469
*963 FILLER_0_1006_475
*964 FILLER_0_1006_477
*965 FILLER_0_1006_489
*966 FILLER_0_1006_501
*967 FILLER_0_1006_513
*968 FILLER_0_1006_525
*969 FILLER_0_1006_53
*970 FILLER_0_1006_531
*971 FILLER_0_1006_533
*972 FILLER_0_1006_545
*973 FILLER_0_1006_557
*974 FILLER_0_1006_569
*975 FILLER_0_1006_581
*976 FILLER_0_1006_587
*977 FILLER_0_1006_589
*978 FILLER_0_1006_601
*979 FILLER_0_1006_613
*980 FILLER_0_1006_65
*981 FILLER_0_1006_77
*982 FILLER_0_1006_83
*983 FILLER_0_1006_85
*984 FILLER_0_1006_97
*985 FILLER_0_1007_105
*986 FILLER_0_1007_111
*987 FILLER_0_1007_113
*988 FILLER_0_1007_125
*989 FILLER_0_1007_137
*990 FILLER_0_1007_149
*991 FILLER_0_1007_15
*992 FILLER_0_1007_161
*993 FILLER_0_1007_167
*994 FILLER_0_1007_169
*995 FILLER_0_1007_181
*996 FILLER_0_1007_193
*997 FILLER_0_1007_205
*998 FILLER_0_1007_217
*999 FILLER_0_1007_223
*1000 FILLER_0_1007_225
*1001 FILLER_0_1007_237
*1002 FILLER_0_1007_249
*1003 FILLER_0_1007_261
*1004 FILLER_0_1007_27
*1005 FILLER_0_1007_273
*1006 FILLER_0_1007_279
*1007 FILLER_0_1007_281
*1008 FILLER_0_1007_293
*1009 FILLER_0_1007_3
*1010 FILLER_0_1007_305
*1011 FILLER_0_1007_317
*1012 FILLER_0_1007_329
*1013 FILLER_0_1007_335
*1014 FILLER_0_1007_337
*1015 FILLER_0_1007_349
*1016 FILLER_0_1007_361
*1017 FILLER_0_1007_373
*1018 FILLER_0_1007_385
*1019 FILLER_0_1007_39
*1020 FILLER_0_1007_391
*1021 FILLER_0_1007_393
*1022 FILLER_0_1007_405
*1023 FILLER_0_1007_417
*1024 FILLER_0_1007_429
*1025 FILLER_0_1007_441
*1026 FILLER_0_1007_447
*1027 FILLER_0_1007_449
*1028 FILLER_0_1007_461
*1029 FILLER_0_1007_473
*1030 FILLER_0_1007_485
*1031 FILLER_0_1007_497
*1032 FILLER_0_1007_503
*1033 FILLER_0_1007_505
*1034 FILLER_0_1007_51
*1035 FILLER_0_1007_517
*1036 FILLER_0_1007_529
*1037 FILLER_0_1007_541
*1038 FILLER_0_1007_55
*1039 FILLER_0_1007_553
*1040 FILLER_0_1007_559
*1041 FILLER_0_1007_561
*1042 FILLER_0_1007_57
*1043 FILLER_0_1007_573
*1044 FILLER_0_1007_585
*1045 FILLER_0_1007_597
*1046 FILLER_0_1007_609
*1047 FILLER_0_1007_615
*1048 FILLER_0_1007_617
*1049 FILLER_0_1007_69
*1050 FILLER_0_1007_81
*1051 FILLER_0_1007_93
*1052 FILLER_0_1008_109
*1053 FILLER_0_1008_121
*1054 FILLER_0_1008_133
*1055 FILLER_0_1008_139
*1056 FILLER_0_1008_141
*1057 FILLER_0_1008_15
*1058 FILLER_0_1008_153
*1059 FILLER_0_1008_165
*1060 FILLER_0_1008_177
*1061 FILLER_0_1008_189
*1062 FILLER_0_1008_195
*1063 FILLER_0_1008_197
*1064 FILLER_0_1008_209
*1065 FILLER_0_1008_221
*1066 FILLER_0_1008_233
*1067 FILLER_0_1008_245
*1068 FILLER_0_1008_251
*1069 FILLER_0_1008_253
*1070 FILLER_0_1008_265
*1071 FILLER_0_1008_27
*1072 FILLER_0_1008_277
*1073 FILLER_0_1008_289
*1074 FILLER_0_1008_29
*1075 FILLER_0_1008_3
*1076 FILLER_0_1008_301
*1077 FILLER_0_1008_307
*1078 FILLER_0_1008_309
*1079 FILLER_0_1008_321
*1080 FILLER_0_1008_333
*1081 FILLER_0_1008_345
*1082 FILLER_0_1008_357
*1083 FILLER_0_1008_363
*1084 FILLER_0_1008_365
*1085 FILLER_0_1008_377
*1086 FILLER_0_1008_389
*1087 FILLER_0_1008_401
*1088 FILLER_0_1008_41
*1089 FILLER_0_1008_413
*1090 FILLER_0_1008_419
*1091 FILLER_0_1008_421
*1092 FILLER_0_1008_433
*1093 FILLER_0_1008_445
*1094 FILLER_0_1008_457
*1095 FILLER_0_1008_469
*1096 FILLER_0_1008_475
*1097 FILLER_0_1008_477
*1098 FILLER_0_1008_489
*1099 FILLER_0_1008_501
*1100 FILLER_0_1008_513
*1101 FILLER_0_1008_525
*1102 FILLER_0_1008_53
*1103 FILLER_0_1008_531
*1104 FILLER_0_1008_533
*1105 FILLER_0_1008_545
*1106 FILLER_0_1008_557
*1107 FILLER_0_1008_569
*1108 FILLER_0_1008_581
*1109 FILLER_0_1008_587
*1110 FILLER_0_1008_589
*1111 FILLER_0_1008_601
*1112 FILLER_0_1008_613
*1113 FILLER_0_1008_65
*1114 FILLER_0_1008_77
*1115 FILLER_0_1008_83
*1116 FILLER_0_1008_85
*1117 FILLER_0_1008_97
*1118 FILLER_0_1009_105
*1119 FILLER_0_1009_111
*1120 FILLER_0_1009_113
*1121 FILLER_0_1009_125
*1122 FILLER_0_1009_137
*1123 FILLER_0_1009_149
*1124 FILLER_0_1009_15
*1125 FILLER_0_1009_161
*1126 FILLER_0_1009_167
*1127 FILLER_0_1009_169
*1128 FILLER_0_1009_181
*1129 FILLER_0_1009_193
*1130 FILLER_0_1009_205
*1131 FILLER_0_1009_217
*1132 FILLER_0_1009_223
*1133 FILLER_0_1009_225
*1134 FILLER_0_1009_237
*1135 FILLER_0_1009_249
*1136 FILLER_0_1009_261
*1137 FILLER_0_1009_27
*1138 FILLER_0_1009_273
*1139 FILLER_0_1009_279
*1140 FILLER_0_1009_281
*1141 FILLER_0_1009_293
*1142 FILLER_0_1009_3
*1143 FILLER_0_1009_305
*1144 FILLER_0_1009_317
*1145 FILLER_0_1009_329
*1146 FILLER_0_1009_335
*1147 FILLER_0_1009_337
*1148 FILLER_0_1009_349
*1149 FILLER_0_1009_361
*1150 FILLER_0_1009_373
*1151 FILLER_0_1009_385
*1152 FILLER_0_1009_39
*1153 FILLER_0_1009_391
*1154 FILLER_0_1009_393
*1155 FILLER_0_1009_405
*1156 FILLER_0_1009_417
*1157 FILLER_0_1009_429
*1158 FILLER_0_1009_441
*1159 FILLER_0_1009_447
*1160 FILLER_0_1009_449
*1161 FILLER_0_1009_461
*1162 FILLER_0_1009_473
*1163 FILLER_0_1009_485
*1164 FILLER_0_1009_497
*1165 FILLER_0_1009_503
*1166 FILLER_0_1009_505
*1167 FILLER_0_1009_51
*1168 FILLER_0_1009_517
*1169 FILLER_0_1009_529
*1170 FILLER_0_1009_541
*1171 FILLER_0_1009_55
*1172 FILLER_0_1009_553
*1173 FILLER_0_1009_559
*1174 FILLER_0_1009_561
*1175 FILLER_0_1009_57
*1176 FILLER_0_1009_573
*1177 FILLER_0_1009_585
*1178 FILLER_0_1009_597
*1179 FILLER_0_1009_609
*1180 FILLER_0_1009_615
*1181 FILLER_0_1009_617
*1182 FILLER_0_1009_69
*1183 FILLER_0_1009_81
*1184 FILLER_0_1009_93
*1185 FILLER_0_100_109
*1186 FILLER_0_100_121
*1187 FILLER_0_100_133
*1188 FILLER_0_100_139
*1189 FILLER_0_100_141
*1190 FILLER_0_100_15
*1191 FILLER_0_100_153
*1192 FILLER_0_100_165
*1193 FILLER_0_100_177
*1194 FILLER_0_100_189
*1195 FILLER_0_100_195
*1196 FILLER_0_100_197
*1197 FILLER_0_100_209
*1198 FILLER_0_100_221
*1199 FILLER_0_100_233
*1200 FILLER_0_100_245
*1201 FILLER_0_100_251
*1202 FILLER_0_100_253
*1203 FILLER_0_100_265
*1204 FILLER_0_100_27
*1205 FILLER_0_100_277
*1206 FILLER_0_100_289
*1207 FILLER_0_100_29
*1208 FILLER_0_100_3
*1209 FILLER_0_100_301
*1210 FILLER_0_100_307
*1211 FILLER_0_100_309
*1212 FILLER_0_100_321
*1213 FILLER_0_100_333
*1214 FILLER_0_100_345
*1215 FILLER_0_100_357
*1216 FILLER_0_100_363
*1217 FILLER_0_100_365
*1218 FILLER_0_100_377
*1219 FILLER_0_100_389
*1220 FILLER_0_100_401
*1221 FILLER_0_100_41
*1222 FILLER_0_100_413
*1223 FILLER_0_100_419
*1224 FILLER_0_100_421
*1225 FILLER_0_100_433
*1226 FILLER_0_100_445
*1227 FILLER_0_100_457
*1228 FILLER_0_100_469
*1229 FILLER_0_100_475
*1230 FILLER_0_100_477
*1231 FILLER_0_100_489
*1232 FILLER_0_100_501
*1233 FILLER_0_100_513
*1234 FILLER_0_100_525
*1235 FILLER_0_100_53
*1236 FILLER_0_100_531
*1237 FILLER_0_100_533
*1238 FILLER_0_100_545
*1239 FILLER_0_100_557
*1240 FILLER_0_100_569
*1241 FILLER_0_100_581
*1242 FILLER_0_100_587
*1243 FILLER_0_100_589
*1244 FILLER_0_100_601
*1245 FILLER_0_100_613
*1246 FILLER_0_100_65
*1247 FILLER_0_100_77
*1248 FILLER_0_100_83
*1249 FILLER_0_100_85
*1250 FILLER_0_100_97
*1251 FILLER_0_1010_109
*1252 FILLER_0_1010_121
*1253 FILLER_0_1010_133
*1254 FILLER_0_1010_139
*1255 FILLER_0_1010_141
*1256 FILLER_0_1010_15
*1257 FILLER_0_1010_153
*1258 FILLER_0_1010_165
*1259 FILLER_0_1010_177
*1260 FILLER_0_1010_189
*1261 FILLER_0_1010_195
*1262 FILLER_0_1010_197
*1263 FILLER_0_1010_209
*1264 FILLER_0_1010_221
*1265 FILLER_0_1010_233
*1266 FILLER_0_1010_245
*1267 FILLER_0_1010_251
*1268 FILLER_0_1010_253
*1269 FILLER_0_1010_265
*1270 FILLER_0_1010_27
*1271 FILLER_0_1010_277
*1272 FILLER_0_1010_289
*1273 FILLER_0_1010_29
*1274 FILLER_0_1010_3
*1275 FILLER_0_1010_301
*1276 FILLER_0_1010_307
*1277 FILLER_0_1010_309
*1278 FILLER_0_1010_321
*1279 FILLER_0_1010_333
*1280 FILLER_0_1010_345
*1281 FILLER_0_1010_357
*1282 FILLER_0_1010_363
*1283 FILLER_0_1010_365
*1284 FILLER_0_1010_377
*1285 FILLER_0_1010_389
*1286 FILLER_0_1010_401
*1287 FILLER_0_1010_41
*1288 FILLER_0_1010_413
*1289 FILLER_0_1010_419
*1290 FILLER_0_1010_421
*1291 FILLER_0_1010_433
*1292 FILLER_0_1010_445
*1293 FILLER_0_1010_457
*1294 FILLER_0_1010_469
*1295 FILLER_0_1010_475
*1296 FILLER_0_1010_477
*1297 FILLER_0_1010_489
*1298 FILLER_0_1010_501
*1299 FILLER_0_1010_513
*1300 FILLER_0_1010_525
*1301 FILLER_0_1010_53
*1302 FILLER_0_1010_531
*1303 FILLER_0_1010_533
*1304 FILLER_0_1010_545
*1305 FILLER_0_1010_557
*1306 FILLER_0_1010_569
*1307 FILLER_0_1010_581
*1308 FILLER_0_1010_587
*1309 FILLER_0_1010_589
*1310 FILLER_0_1010_601
*1311 FILLER_0_1010_613
*1312 FILLER_0_1010_65
*1313 FILLER_0_1010_77
*1314 FILLER_0_1010_83
*1315 FILLER_0_1010_85
*1316 FILLER_0_1010_97
*1317 FILLER_0_1011_105
*1318 FILLER_0_1011_111
*1319 FILLER_0_1011_113
*1320 FILLER_0_1011_125
*1321 FILLER_0_1011_137
*1322 FILLER_0_1011_149
*1323 FILLER_0_1011_15
*1324 FILLER_0_1011_161
*1325 FILLER_0_1011_167
*1326 FILLER_0_1011_169
*1327 FILLER_0_1011_181
*1328 FILLER_0_1011_193
*1329 FILLER_0_1011_205
*1330 FILLER_0_1011_217
*1331 FILLER_0_1011_223
*1332 FILLER_0_1011_225
*1333 FILLER_0_1011_237
*1334 FILLER_0_1011_249
*1335 FILLER_0_1011_261
*1336 FILLER_0_1011_27
*1337 FILLER_0_1011_273
*1338 FILLER_0_1011_279
*1339 FILLER_0_1011_281
*1340 FILLER_0_1011_293
*1341 FILLER_0_1011_3
*1342 FILLER_0_1011_305
*1343 FILLER_0_1011_317
*1344 FILLER_0_1011_329
*1345 FILLER_0_1011_335
*1346 FILLER_0_1011_337
*1347 FILLER_0_1011_349
*1348 FILLER_0_1011_361
*1349 FILLER_0_1011_373
*1350 FILLER_0_1011_385
*1351 FILLER_0_1011_39
*1352 FILLER_0_1011_391
*1353 FILLER_0_1011_393
*1354 FILLER_0_1011_405
*1355 FILLER_0_1011_417
*1356 FILLER_0_1011_429
*1357 FILLER_0_1011_441
*1358 FILLER_0_1011_447
*1359 FILLER_0_1011_449
*1360 FILLER_0_1011_461
*1361 FILLER_0_1011_473
*1362 FILLER_0_1011_485
*1363 FILLER_0_1011_497
*1364 FILLER_0_1011_503
*1365 FILLER_0_1011_505
*1366 FILLER_0_1011_51
*1367 FILLER_0_1011_517
*1368 FILLER_0_1011_529
*1369 FILLER_0_1011_541
*1370 FILLER_0_1011_55
*1371 FILLER_0_1011_553
*1372 FILLER_0_1011_559
*1373 FILLER_0_1011_561
*1374 FILLER_0_1011_57
*1375 FILLER_0_1011_573
*1376 FILLER_0_1011_585
*1377 FILLER_0_1011_597
*1378 FILLER_0_1011_609
*1379 FILLER_0_1011_615
*1380 FILLER_0_1011_617
*1381 FILLER_0_1011_69
*1382 FILLER_0_1011_81
*1383 FILLER_0_1011_93
*1384 FILLER_0_1012_109
*1385 FILLER_0_1012_121
*1386 FILLER_0_1012_133
*1387 FILLER_0_1012_139
*1388 FILLER_0_1012_141
*1389 FILLER_0_1012_15
*1390 FILLER_0_1012_153
*1391 FILLER_0_1012_165
*1392 FILLER_0_1012_177
*1393 FILLER_0_1012_189
*1394 FILLER_0_1012_195
*1395 FILLER_0_1012_197
*1396 FILLER_0_1012_209
*1397 FILLER_0_1012_221
*1398 FILLER_0_1012_233
*1399 FILLER_0_1012_245
*1400 FILLER_0_1012_251
*1401 FILLER_0_1012_253
*1402 FILLER_0_1012_265
*1403 FILLER_0_1012_27
*1404 FILLER_0_1012_277
*1405 FILLER_0_1012_289
*1406 FILLER_0_1012_29
*1407 FILLER_0_1012_3
*1408 FILLER_0_1012_301
*1409 FILLER_0_1012_307
*1410 FILLER_0_1012_309
*1411 FILLER_0_1012_321
*1412 FILLER_0_1012_333
*1413 FILLER_0_1012_345
*1414 FILLER_0_1012_357
*1415 FILLER_0_1012_363
*1416 FILLER_0_1012_365
*1417 FILLER_0_1012_377
*1418 FILLER_0_1012_389
*1419 FILLER_0_1012_401
*1420 FILLER_0_1012_41
*1421 FILLER_0_1012_413
*1422 FILLER_0_1012_419
*1423 FILLER_0_1012_421
*1424 FILLER_0_1012_433
*1425 FILLER_0_1012_445
*1426 FILLER_0_1012_457
*1427 FILLER_0_1012_469
*1428 FILLER_0_1012_475
*1429 FILLER_0_1012_477